VADER_model/aluminum/aluminum_transformers.glm
/////////////////////////////////////////////////////////////////////////////
//
// GridLAB-D service model configuration control file
// Copyright (C) 2016, SLAC National Accelerator Laboratory
// Author: Alyona Ivanova
//
/////////////////////////////////////////////////////////////////////////////
#print Transformers file loaded...

object meter {
	name source_00411;
	bustype SWING;
	    phases ABC;
	    nominal_voltage 6928.41 V;
	voltage_A 7199.77+0.0d V;
	voltage_B 7199.77-120.0d V;
	voltage_C 7199.77+120.0d V;
    object recorder {
            file aluminum_scada.csv;
            //table source_17916;
            //interval 3600;
            property measured_real_energy,measured_reactive_energy;
    };
}


object capacitor{
	name capacitor_P5300947;
	parent node_176256939_00411;
	    phases ABC;
	control VOLT;
	capacitor_A 600.000000 kVAr ;
	capacitor_B 600.000000 kVAr ;
	capacitor_C 600.000000 kVAr ;
	switchA CLOSED;
	switchB CLOSED;
	switchC CLOSED;
	pt_phase ABC;
	voltage_set_high 7.32 kV;
	voltage_set_low 7.08 kV;
	time_delay 60;
	dwell_time 120;
	    nominal_voltage 6928.41 V;
}
object capacitor{
	name capacitor_4086095E;
	parent node_ND26631735_00411;
	    phases ABC;
	control VOLT;
	capacitor_A 0.000000 kVAr ;
	capacitor_B 0.000000 kVAr ;
	capacitor_C 400.000000 kVAr ;
	switchA CLOSED;
	switchB CLOSED;
	switchC CLOSED;
	pt_phase ABC;
	voltage_set_high 7.32 kV;
	voltage_set_low 7.08 kV;
	time_delay 60;
	dwell_time 120;
	    nominal_voltage 6928.41 V;
}
object capacitor{
	name capacitor_P5079151;
	parent node_OS0823-4_00411;
	    phases ABC;
	control VOLT;
	capacitor_A 600.000000 kVAr ;
	capacitor_B 600.000000 kVAr ;
	capacitor_C 600.000000 kVAr ;
	switchA CLOSED;
	switchB CLOSED;
	switchC CLOSED;
	pt_phase ABC;
	voltage_set_high 7.32 kV;
	voltage_set_low 7.08 kV;
	time_delay 60;
	dwell_time 120;
	    nominal_voltage 6928.41 V;
}


object transformer{
    name TX_B5300937_A;
    groupid TX_50_A;
    configuration TX_config_B5300937_A;
    from node_B5300937_F_00411;
    to load_1_A;
    phases AS;
    nominal_voltage 6928.41 V;
}
object transformer_configuration {
    name TX_config_B5300937_A;
    connect_type SINGLE_PHASE_CENTER_TAPPED;
    primary_voltage 6928.41 V;
    secondary_voltage 120 V;
    power_rating 50 kVA;
    powerA_rating 50 kVA;
    impedance 0.0005+0.0095j;
}

object transformer{
    name TX_B5072195_A;
    groupid TX_75_A;
    configuration TX_config_B5072195_A;
    from node_B5072195_F_00411;
    to load_2_A;
    phases AS;
    nominal_voltage 6928.41 V;
}
object transformer_configuration {
    name TX_config_B5072195_A;
    connect_type SINGLE_PHASE_CENTER_TAPPED;
    primary_voltage 6928.41 V;
    secondary_voltage 120 V;
    power_rating 75 kVA;
    powerA_rating 75 kVA;
    impedance 0.00055+0.01045j;
}

object transformer{
    name TX_P5073685_A;
    groupid TX_50_A;
    configuration TX_config_P5073685_A;
    from node_P5073685-A_T_00411;
    to load_3_A;
    phases AS;
    nominal_voltage 6928.41 V;
}
object transformer_configuration {
    name TX_config_P5073685_A;
    connect_type SINGLE_PHASE_CENTER_TAPPED;
    primary_voltage 6928.41 V;
    secondary_voltage 120 V;
    power_rating 50 kVA;
    powerA_rating 50 kVA;
    impedance 0.0005+0.0095j;
}

object transformer{
    name TX_B5079142_A;
    groupid TX_25_A;
    configuration TX_config_B5079142_A;
    from node_B5079142_F_00411;
    to load_4_A;
    phases AS;
    nominal_voltage 6928.41 V;
}
object transformer_configuration {
    name TX_config_B5079142_A;
    connect_type SINGLE_PHASE_CENTER_TAPPED;
    primary_voltage 6928.41 V;
    secondary_voltage 120 V;
    power_rating 25 kVA;
    powerA_rating 25 kVA;
    impedance 0.0005+0.0095j;
}

object transformer{
    name TX_B5076589_A;
    groupid TX_75_A;
    configuration TX_config_B5076589_A;
    from node_B5076589_F_00411;
    to load_5_A;
    phases AS;
    nominal_voltage 6928.41 V;
}
object transformer_configuration {
    name TX_config_B5076589_A;
    connect_type SINGLE_PHASE_CENTER_TAPPED;
    primary_voltage 6928.41 V;
    secondary_voltage 120 V;
    power_rating 75 kVA;
    powerA_rating 75 kVA;
    impedance 0.00055+0.01045j;
}

object transformer{
    name TX_B5300945_A;
    groupid TX_50_A;
    configuration TX_config_B5300945_A;
    from node_B5300945_F_00411;
    to load_6_A;
    phases AS;
    nominal_voltage 6928.41 V;
}
object transformer_configuration {
    name TX_config_B5300945_A;
    connect_type SINGLE_PHASE_CENTER_TAPPED;
    primary_voltage 6928.41 V;
    secondary_voltage 120 V;
    power_rating 50 kVA;
    powerA_rating 50 kVA;
    impedance 0.0005+0.0095j;
}

object transformer{
    name TX_S5071781_A;
    groupid TX_100_A;
    configuration TX_config_S5071781_A;
    from node_S5071781_00411;
    to load_7_A;
    phases AS;
    nominal_voltage 6928.41 V;
}
object transformer_configuration {
    name TX_config_S5071781_A;
    connect_type SINGLE_PHASE_CENTER_TAPPED;
    primary_voltage 6928.41 V;
    secondary_voltage 120 V;
    power_rating 100 kVA;
    powerA_rating 100 kVA;
    impedance 0.00055+0.01045j;
}

object transformer{
    name TX_S5071781_B;
    groupid TX_100_B;
    configuration TX_config_S5071781_B;
    from node_S5071781_00411;
    to load_8_B;
    phases BS;
    nominal_voltage 6928.41 V;
}
object transformer_configuration {
    name TX_config_S5071781_B;
    connect_type SINGLE_PHASE_CENTER_TAPPED;
    primary_voltage 6928.41 V;
    secondary_voltage 120 V;
    power_rating 100 kVA;
    powerB_rating 100 kVA;
    impedance 0.00055+0.01045j;
}

object transformer{
    name TX_S5071781_C;
    groupid TX_100_C;
    configuration TX_config_S5071781_C;
    from node_S5071781_00411;
    to load_9_C;
    phases CS;
    nominal_voltage 6928.41 V;
}
object transformer_configuration {
    name TX_config_S5071781_C;
    connect_type SINGLE_PHASE_CENTER_TAPPED;
    primary_voltage 6928.41 V;
    secondary_voltage 120 V;
    power_rating 100 kVA;
    powerC_rating 100 kVA;
    impedance 0.00055+0.01045j;
}

object transformer{
    name TX_4086096E_A;
    groupid TX_5_A;
    configuration TX_config_4086096E_A;
    from node_4086096E_00411;
    to load_10_A;
    phases AS;
    nominal_voltage 6928.41 V;
}
object transformer_configuration {
    name TX_config_4086096E_A;
    connect_type SINGLE_PHASE_CENTER_TAPPED;
    primary_voltage 6928.41 V;
    secondary_voltage 120 V;
    power_rating 5 kVA;
    powerA_rating 5 kVA;
    impedance 0.00055+0.01045j;
}

object transformer{
    name TX_4086096E_B;
    groupid TX_5_B;
    configuration TX_config_4086096E_B;
    from node_4086096E_00411;
    to load_11_B;
    phases BS;
    nominal_voltage 6928.41 V;
}
object transformer_configuration {
    name TX_config_4086096E_B;
    connect_type SINGLE_PHASE_CENTER_TAPPED;
    primary_voltage 6928.41 V;
    secondary_voltage 120 V;
    power_rating 5 kVA;
    powerB_rating 5 kVA;
    impedance 0.00055+0.01045j;
}

object transformer{
    name TX_4086096E_C;
    groupid TX_5_C;
    configuration TX_config_4086096E_C;
    from node_4086096E_00411;
    to load_12_C;
    phases CS;
    nominal_voltage 6928.41 V;
}
object transformer_configuration {
    name TX_config_4086096E_C;
    connect_type SINGLE_PHASE_CENTER_TAPPED;
    primary_voltage 6928.41 V;
    secondary_voltage 120 V;
    power_rating 5 kVA;
    powerC_rating 5 kVA;
    impedance 0.00055+0.01045j;
}

object transformer{
    name TX_B5074332_A;
    groupid TX_50_A;
    configuration TX_config_B5074332_A;
    from node_B5074332_F_00411;
    to load_13_A;
    phases AS;
    nominal_voltage 6928.41 V;
}
object transformer_configuration {
    name TX_config_B5074332_A;
    connect_type SINGLE_PHASE_CENTER_TAPPED;
    primary_voltage 6928.41 V;
    secondary_voltage 120 V;
    power_rating 50 kVA;
    powerA_rating 50 kVA;
    impedance 0.0005+0.0095j;
}

object transformer{
    name TX_B5300936_A;
    groupid TX_50_A;
    configuration TX_config_B5300936_A;
    from node_B5300936_F_00411;
    to load_14_A;
    phases AS;
    nominal_voltage 6928.41 V;
}
object transformer_configuration {
    name TX_config_B5300936_A;
    connect_type SINGLE_PHASE_CENTER_TAPPED;
    primary_voltage 6928.41 V;
    secondary_voltage 120 V;
    power_rating 50 kVA;
    powerA_rating 50 kVA;
    impedance 0.0005+0.0095j;
}

object transformer{
    name TX_B5074335_A;
    groupid TX_50_A;
    configuration TX_config_B5074335_A;
    from node_B5074335_F_00411;
    to load_15_A;
    phases AS;
    nominal_voltage 6928.41 V;
}
object transformer_configuration {
    name TX_config_B5074335_A;
    connect_type SINGLE_PHASE_CENTER_TAPPED;
    primary_voltage 6928.41 V;
    secondary_voltage 120 V;
    power_rating 50 kVA;
    powerA_rating 50 kVA;
    impedance 0.0005+0.0095j;
}

object transformer{
    name TX_B5598129_A;
    groupid TX_25_A;
    configuration TX_config_B5598129_A;
    from node_B5598129_F_00411;
    to load_16_A;
    phases AS;
    nominal_voltage 6928.41 V;
}
object transformer_configuration {
    name TX_config_B5598129_A;
    connect_type SINGLE_PHASE_CENTER_TAPPED;
    primary_voltage 6928.41 V;
    secondary_voltage 120 V;
    power_rating 25 kVA;
    powerA_rating 25 kVA;
    impedance 0.0005+0.0095j;
}

object transformer{
    name TX_B5546266_A;
    groupid TX_75_A;
    configuration TX_config_B5546266_A;
    from node_B5546266_F_00411;
    to load_17_A;
    phases AS;
    nominal_voltage 6928.41 V;
}
object transformer_configuration {
    name TX_config_B5546266_A;
    connect_type SINGLE_PHASE_CENTER_TAPPED;
    primary_voltage 6928.41 V;
    secondary_voltage 120 V;
    power_rating 75 kVA;
    powerA_rating 75 kVA;
    impedance 0.00055+0.01045j;
}

object transformer{
    name TX_B5076592_A;
    groupid TX_75_A;
    configuration TX_config_B5076592_A;
    from node_B5076592_F_00411;
    to load_18_A;
    phases AS;
    nominal_voltage 6928.41 V;
}
object transformer_configuration {
    name TX_config_B5076592_A;
    connect_type SINGLE_PHASE_CENTER_TAPPED;
    primary_voltage 6928.41 V;
    secondary_voltage 120 V;
    power_rating 75 kVA;
    powerA_rating 75 kVA;
    impedance 0.00055+0.01045j;
}

object transformer{
    name TX_P5074473_A;
    groupid TX_100_A;
    configuration TX_config_P5074473_A;
    from node_P5074473_F_00411;
    to load_19_A;
    phases AS;
    nominal_voltage 6928.41 V;
}
object transformer_configuration {
    name TX_config_P5074473_A;
    connect_type SINGLE_PHASE_CENTER_TAPPED;
    primary_voltage 6928.41 V;
    secondary_voltage 120 V;
    power_rating 100 kVA;
    powerA_rating 100 kVA;
    impedance 0.00055+0.01045j;
}

object transformer{
    name TX_B5079823_A;
    groupid TX_50_A;
    configuration TX_config_B5079823_A;
    from node_B5079823_F_00411;
    to load_20_A;
    phases AS;
    nominal_voltage 6928.41 V;
}
object transformer_configuration {
    name TX_config_B5079823_A;
    connect_type SINGLE_PHASE_CENTER_TAPPED;
    primary_voltage 6928.41 V;
    secondary_voltage 120 V;
    power_rating 50 kVA;
    powerA_rating 50 kVA;
    impedance 0.0005+0.0095j;
}

object transformer{
    name TX_P5363742_A;
    groupid TX_25_A;
    configuration TX_config_P5363742_A;
    from node_P5363742-1_T_00411;
    to load_21_A;
    phases AS;
    nominal_voltage 6928.41 V;
}
object transformer_configuration {
    name TX_config_P5363742_A;
    connect_type SINGLE_PHASE_CENTER_TAPPED;
    primary_voltage 6928.41 V;
    secondary_voltage 120 V;
    power_rating 25 kVA;
    powerA_rating 25 kVA;
    impedance 0.00055+0.01045j;
}

object transformer{
    name TX_P5363742_B;
    groupid TX_25_B;
    configuration TX_config_P5363742_B;
    from node_P5363742-1_T_00411;
    to load_22_B;
    phases BS;
    nominal_voltage 6928.41 V;
}
object transformer_configuration {
    name TX_config_P5363742_B;
    connect_type SINGLE_PHASE_CENTER_TAPPED;
    primary_voltage 6928.41 V;
    secondary_voltage 120 V;
    power_rating 25 kVA;
    powerB_rating 25 kVA;
    impedance 0.00055+0.01045j;
}

object transformer{
    name TX_P5363742_C;
    groupid TX_25_C;
    configuration TX_config_P5363742_C;
    from node_P5363742-1_T_00411;
    to load_23_C;
    phases CS;
    nominal_voltage 6928.41 V;
}
object transformer_configuration {
    name TX_config_P5363742_C;
    connect_type SINGLE_PHASE_CENTER_TAPPED;
    primary_voltage 6928.41 V;
    secondary_voltage 120 V;
    power_rating 25 kVA;
    powerC_rating 25 kVA;
    impedance 0.00055+0.01045j;
}

object transformer{
    name TX_V5421056T3_A;
    groupid TX_55_667_A;
    configuration TX_config_V5421056T3_A;
    from node_V5421056T3_00411;
    to load_24_A;
    phases AS;
    nominal_voltage 6928.41 V;
}
object transformer_configuration {
    name TX_config_V5421056T3_A;
    connect_type SINGLE_PHASE_CENTER_TAPPED;
    primary_voltage 6928.41 V;
    secondary_voltage 120 V;
    power_rating 55.667 kVA;
    powerA_rating 55.667 kVA;
    impedance 0.00055+0.01045j;
}

object transformer{
    name TX_V5421056T3_B;
    groupid TX_55_667_B;
    configuration TX_config_V5421056T3_B;
    from node_V5421056T3_00411;
    to load_25_B;
    phases BS;
    nominal_voltage 6928.41 V;
}
object transformer_configuration {
    name TX_config_V5421056T3_B;
    connect_type SINGLE_PHASE_CENTER_TAPPED;
    primary_voltage 6928.41 V;
    secondary_voltage 120 V;
    power_rating 55.667 kVA;
    powerB_rating 55.667 kVA;
    impedance 0.00055+0.01045j;
}

object transformer{
    name TX_V5421056T3_C;
    groupid TX_55_667_C;
    configuration TX_config_V5421056T3_C;
    from node_V5421056T3_00411;
    to load_26_C;
    phases CS;
    nominal_voltage 6928.41 V;
}
object transformer_configuration {
    name TX_config_V5421056T3_C;
    connect_type SINGLE_PHASE_CENTER_TAPPED;
    primary_voltage 6928.41 V;
    secondary_voltage 120 V;
    power_rating 55.667 kVA;
    powerC_rating 55.667 kVA;
    impedance 0.00055+0.01045j;
}

object transformer{
    name TX_B5077950_A;
    groupid TX_75_A;
    configuration TX_config_B5077950_A;
    from node_B5077950_F_00411;
    to load_27_A;
    phases AS;
    nominal_voltage 6928.41 V;
}
object transformer_configuration {
    name TX_config_B5077950_A;
    connect_type SINGLE_PHASE_CENTER_TAPPED;
    primary_voltage 6928.41 V;
    secondary_voltage 120 V;
    power_rating 75 kVA;
    powerA_rating 75 kVA;
    impedance 0.00055+0.01045j;
}

object transformer{
    name TX_P5074772_A;
    groupid TX_50_A;
    configuration TX_config_P5074772_A;
    from node_P5074772-1_T_00411;
    to load_28_A;
    phases AS;
    nominal_voltage 6928.41 V;
}
object transformer_configuration {
    name TX_config_P5074772_A;
    connect_type SINGLE_PHASE_CENTER_TAPPED;
    primary_voltage 6928.41 V;
    secondary_voltage 120 V;
    power_rating 50 kVA;
    powerA_rating 50 kVA;
    impedance 0.00055+0.01045j;
}

object transformer{
    name TX_P5074772_B;
    groupid TX_50_B;
    configuration TX_config_P5074772_B;
    from node_P5074772-1_T_00411;
    to load_29_B;
    phases BS;
    nominal_voltage 6928.41 V;
}
object transformer_configuration {
    name TX_config_P5074772_B;
    connect_type SINGLE_PHASE_CENTER_TAPPED;
    primary_voltage 6928.41 V;
    secondary_voltage 120 V;
    power_rating 50 kVA;
    powerB_rating 50 kVA;
    impedance 0.00055+0.01045j;
}

object transformer{
    name TX_P5074772_C;
    groupid TX_50_C;
    configuration TX_config_P5074772_C;
    from node_P5074772-1_T_00411;
    to load_30_C;
    phases CS;
    nominal_voltage 6928.41 V;
}
object transformer_configuration {
    name TX_config_P5074772_C;
    connect_type SINGLE_PHASE_CENTER_TAPPED;
    primary_voltage 6928.41 V;
    secondary_voltage 120 V;
    power_rating 50 kVA;
    powerC_rating 50 kVA;
    impedance 0.00055+0.01045j;
}

object transformer{
    name TX_B5077955_A;
    groupid TX_50_A;
    configuration TX_config_B5077955_A;
    from node_B5077955_F_00411;
    to load_31_A;
    phases AS;
    nominal_voltage 6928.41 V;
}
object transformer_configuration {
    name TX_config_B5077955_A;
    connect_type SINGLE_PHASE_CENTER_TAPPED;
    primary_voltage 6928.41 V;
    secondary_voltage 120 V;
    power_rating 50 kVA;
    powerA_rating 50 kVA;
    impedance 0.0005+0.0095j;
}

object transformer{
    name TX_B5074330_A;
    groupid TX_50_A;
    configuration TX_config_B5074330_A;
    from node_B5074330_F_00411;
    to load_32_A;
    phases AS;
    nominal_voltage 6928.41 V;
}
object transformer_configuration {
    name TX_config_B5074330_A;
    connect_type SINGLE_PHASE_CENTER_TAPPED;
    primary_voltage 6928.41 V;
    secondary_voltage 120 V;
    power_rating 50 kVA;
    powerA_rating 50 kVA;
    impedance 0.0005+0.0095j;
}

object transformer{
    name TX_P5073684_A;
    groupid TX_50_A;
    configuration TX_config_P5073684_A;
    from node_P5073684_F_00411;
    to load_33_A;
    phases AS;
    nominal_voltage 6928.41 V;
}
object transformer_configuration {
    name TX_config_P5073684_A;
    connect_type SINGLE_PHASE_CENTER_TAPPED;
    primary_voltage 6928.41 V;
    secondary_voltage 120 V;
    power_rating 50 kVA;
    powerA_rating 50 kVA;
    impedance 0.0005+0.0095j;
}

object transformer{
    name TX_B5072173_A;
    groupid TX_75_A;
    configuration TX_config_B5072173_A;
    from node_B5072173_F_00411;
    to load_34_A;
    phases AS;
    nominal_voltage 6928.41 V;
}
object transformer_configuration {
    name TX_config_B5072173_A;
    connect_type SINGLE_PHASE_CENTER_TAPPED;
    primary_voltage 6928.41 V;
    secondary_voltage 120 V;
    power_rating 75 kVA;
    powerA_rating 75 kVA;
    impedance 0.00055+0.01045j;
}

object transformer{
    name TX_B5072169_A;
    groupid TX_75_A;
    configuration TX_config_B5072169_A;
    from node_B5072169_F_00411;
    to load_35_A;
    phases AS;
    nominal_voltage 6928.41 V;
}
object transformer_configuration {
    name TX_config_B5072169_A;
    connect_type SINGLE_PHASE_CENTER_TAPPED;
    primary_voltage 6928.41 V;
    secondary_voltage 120 V;
    power_rating 75 kVA;
    powerA_rating 75 kVA;
    impedance 0.00055+0.01045j;
}

object transformer{
    name TX_B5076584_A;
    groupid TX_50_A;
    configuration TX_config_B5076584_A;
    from node_B5076584_F_00411;
    to load_36_A;
    phases AS;
    nominal_voltage 6928.41 V;
}
object transformer_configuration {
    name TX_config_B5076584_A;
    connect_type SINGLE_PHASE_CENTER_TAPPED;
    primary_voltage 6928.41 V;
    secondary_voltage 120 V;
    power_rating 50 kVA;
    powerA_rating 50 kVA;
    impedance 0.0005+0.0095j;
}

object transformer{
    name TX_P5073042_A;
    groupid TX_16_667_A;
    configuration TX_config_P5073042_A;
    from node_P5073042-A_T_00411;
    to load_37_A;
    phases AS;
    nominal_voltage 6928.41 V;
}
object transformer_configuration {
    name TX_config_P5073042_A;
    connect_type SINGLE_PHASE_CENTER_TAPPED;
    primary_voltage 6928.41 V;
    secondary_voltage 120 V;
    power_rating 16.667 kVA;
    powerA_rating 16.667 kVA;
    impedance 0.00055+0.01045j;
}

object transformer{
    name TX_P5073042_B;
    groupid TX_16_667_B;
    configuration TX_config_P5073042_B;
    from node_P5073042-A_T_00411;
    to load_38_B;
    phases BS;
    nominal_voltage 6928.41 V;
}
object transformer_configuration {
    name TX_config_P5073042_B;
    connect_type SINGLE_PHASE_CENTER_TAPPED;
    primary_voltage 6928.41 V;
    secondary_voltage 120 V;
    power_rating 16.667 kVA;
    powerB_rating 16.667 kVA;
    impedance 0.00055+0.01045j;
}

object transformer{
    name TX_P5073042_C;
    groupid TX_16_667_C;
    configuration TX_config_P5073042_C;
    from node_P5073042-A_T_00411;
    to load_39_C;
    phases CS;
    nominal_voltage 6928.41 V;
}
object transformer_configuration {
    name TX_config_P5073042_C;
    connect_type SINGLE_PHASE_CENTER_TAPPED;
    primary_voltage 6928.41 V;
    secondary_voltage 120 V;
    power_rating 16.667 kVA;
    powerC_rating 16.667 kVA;
    impedance 0.00055+0.01045j;
}

object transformer{
    name TX_P5075988_A;
    groupid TX_50_A;
    configuration TX_config_P5075988_A;
    from node_P5075988-1_T_00411;
    to load_40_A;
    phases AS;
    nominal_voltage 6928.41 V;
}
object transformer_configuration {
    name TX_config_P5075988_A;
    connect_type SINGLE_PHASE_CENTER_TAPPED;
    primary_voltage 6928.41 V;
    secondary_voltage 120 V;
    power_rating 50 kVA;
    powerA_rating 50 kVA;
    impedance 0.00055+0.01045j;
}

object transformer{
    name TX_P5075988_B;
    groupid TX_50_B;
    configuration TX_config_P5075988_B;
    from node_P5075988-1_T_00411;
    to load_41_B;
    phases BS;
    nominal_voltage 6928.41 V;
}
object transformer_configuration {
    name TX_config_P5075988_B;
    connect_type SINGLE_PHASE_CENTER_TAPPED;
    primary_voltage 6928.41 V;
    secondary_voltage 120 V;
    power_rating 50 kVA;
    powerB_rating 50 kVA;
    impedance 0.00055+0.01045j;
}

object transformer{
    name TX_P5075988_C;
    groupid TX_50_C;
    configuration TX_config_P5075988_C;
    from node_P5075988-1_T_00411;
    to load_42_C;
    phases CS;
    nominal_voltage 6928.41 V;
}
object transformer_configuration {
    name TX_config_P5075988_C;
    connect_type SINGLE_PHASE_CENTER_TAPPED;
    primary_voltage 6928.41 V;
    secondary_voltage 120 V;
    power_rating 50 kVA;
    powerC_rating 50 kVA;
    impedance 0.00055+0.01045j;
}

object transformer{
    name TX_B5072679_A;
    groupid TX_75_A;
    configuration TX_config_B5072679_A;
    from node_B5072679_F_00411;
    to load_43_A;
    phases AS;
    nominal_voltage 6928.41 V;
}
object transformer_configuration {
    name TX_config_B5072679_A;
    connect_type SINGLE_PHASE_CENTER_TAPPED;
    primary_voltage 6928.41 V;
    secondary_voltage 120 V;
    power_rating 75 kVA;
    powerA_rating 75 kVA;
    impedance 0.00055+0.01045j;
}

object transformer{
    name TX_B5075885_A;
    groupid TX_50_A;
    configuration TX_config_B5075885_A;
    from node_B5075885_F_00411;
    to load_44_A;
    phases AS;
    nominal_voltage 6928.41 V;
}
object transformer_configuration {
    name TX_config_B5075885_A;
    connect_type SINGLE_PHASE_CENTER_TAPPED;
    primary_voltage 6928.41 V;
    secondary_voltage 120 V;
    power_rating 50 kVA;
    powerA_rating 50 kVA;
    impedance 0.0005+0.0095j;
}

object transformer{
    name TX_V5075701T1_A;
    groupid TX_16_667_A;
    configuration TX_config_V5075701T1_A;
    from node_V5075701T1_00411;
    to load_45_A;
    phases AS;
    nominal_voltage 6928.41 V;
}
object transformer_configuration {
    name TX_config_V5075701T1_A;
    connect_type SINGLE_PHASE_CENTER_TAPPED;
    primary_voltage 6928.41 V;
    secondary_voltage 120 V;
    power_rating 16.667 kVA;
    powerA_rating 16.667 kVA;
    impedance 0.00055+0.01045j;
}

object transformer{
    name TX_V5075701T1_B;
    groupid TX_16_667_B;
    configuration TX_config_V5075701T1_B;
    from node_V5075701T1_00411;
    to load_46_B;
    phases BS;
    nominal_voltage 6928.41 V;
}
object transformer_configuration {
    name TX_config_V5075701T1_B;
    connect_type SINGLE_PHASE_CENTER_TAPPED;
    primary_voltage 6928.41 V;
    secondary_voltage 120 V;
    power_rating 16.667 kVA;
    powerB_rating 16.667 kVA;
    impedance 0.00055+0.01045j;
}

object transformer{
    name TX_V5075701T1_C;
    groupid TX_16_667_C;
    configuration TX_config_V5075701T1_C;
    from node_V5075701T1_00411;
    to load_47_C;
    phases CS;
    nominal_voltage 6928.41 V;
}
object transformer_configuration {
    name TX_config_V5075701T1_C;
    connect_type SINGLE_PHASE_CENTER_TAPPED;
    primary_voltage 6928.41 V;
    secondary_voltage 120 V;
    power_rating 16.667 kVA;
    powerC_rating 16.667 kVA;
    impedance 0.00055+0.01045j;
}

object transformer{
    name TX_B5072181_A;
    groupid TX_75_A;
    configuration TX_config_B5072181_A;
    from node_B5072181_F_00411;
    to load_48_A;
    phases AS;
    nominal_voltage 6928.41 V;
}
object transformer_configuration {
    name TX_config_B5072181_A;
    connect_type SINGLE_PHASE_CENTER_TAPPED;
    primary_voltage 6928.41 V;
    secondary_voltage 120 V;
    power_rating 75 kVA;
    powerA_rating 75 kVA;
    impedance 0.00055+0.01045j;
}

object transformer{
    name TX_B5078582_A;
    groupid TX_75_A;
    configuration TX_config_B5078582_A;
    from node_B5078582_F_00411;
    to load_49_A;
    phases AS;
    nominal_voltage 6928.41 V;
}
object transformer_configuration {
    name TX_config_B5078582_A;
    connect_type SINGLE_PHASE_CENTER_TAPPED;
    primary_voltage 6928.41 V;
    secondary_voltage 120 V;
    power_rating 75 kVA;
    powerA_rating 75 kVA;
    impedance 0.00055+0.01045j;
}

object transformer{
    name TX_P5598128_A;
    groupid TX_25_A;
    configuration TX_config_P5598128_A;
    from node_P5598128-1_T_00411;
    to load_50_A;
    phases AS;
    nominal_voltage 6928.41 V;
}
object transformer_configuration {
    name TX_config_P5598128_A;
    connect_type SINGLE_PHASE_CENTER_TAPPED;
    primary_voltage 6928.41 V;
    secondary_voltage 120 V;
    power_rating 25 kVA;
    powerA_rating 25 kVA;
    impedance 0.0005+0.0095j;
}

object transformer{
    name TX_B5076610_A;
    groupid TX_75_A;
    configuration TX_config_B5076610_A;
    from node_B5076610_F_00411;
    to load_51_A;
    phases AS;
    nominal_voltage 6928.41 V;
}
object transformer_configuration {
    name TX_config_B5076610_A;
    connect_type SINGLE_PHASE_CENTER_TAPPED;
    primary_voltage 6928.41 V;
    secondary_voltage 120 V;
    power_rating 75 kVA;
    powerA_rating 75 kVA;
    impedance 0.00055+0.01045j;
}

object transformer{
    name TX_B5078586_A;
    groupid TX_75_A;
    configuration TX_config_B5078586_A;
    from node_B5078586_F_00411;
    to load_52_A;
    phases AS;
    nominal_voltage 6928.41 V;
}
object transformer_configuration {
    name TX_config_B5078586_A;
    connect_type SINGLE_PHASE_CENTER_TAPPED;
    primary_voltage 6928.41 V;
    secondary_voltage 120 V;
    power_rating 75 kVA;
    powerA_rating 75 kVA;
    impedance 0.00055+0.01045j;
}

object transformer{
    name TX_BS0810-LT_A;
    groupid TX_25_A;
    configuration TX_config_BS0810-LT_A;
    from node_BS0810-L_F_00411;
    to load_53_A;
    phases AS;
    nominal_voltage 6928.41 V;
}
object transformer_configuration {
    name TX_config_BS0810-LT_A;
    connect_type SINGLE_PHASE_CENTER_TAPPED;
    primary_voltage 6928.41 V;
    secondary_voltage 120 V;
    power_rating 25 kVA;
    powerA_rating 25 kVA;
    impedance 0.00055+0.01045j;
}

object transformer{
    name TX_BS0810-LT_B;
    groupid TX_25_B;
    configuration TX_config_BS0810-LT_B;
    from node_BS0810-L_F_00411;
    to load_54_B;
    phases BS;
    nominal_voltage 6928.41 V;
}
object transformer_configuration {
    name TX_config_BS0810-LT_B;
    connect_type SINGLE_PHASE_CENTER_TAPPED;
    primary_voltage 6928.41 V;
    secondary_voltage 120 V;
    power_rating 25 kVA;
    powerB_rating 25 kVA;
    impedance 0.00055+0.01045j;
}

object transformer{
    name TX_BS0810-LT_C;
    groupid TX_25_C;
    configuration TX_config_BS0810-LT_C;
    from node_BS0810-L_F_00411;
    to load_55_C;
    phases CS;
    nominal_voltage 6928.41 V;
}
object transformer_configuration {
    name TX_config_BS0810-LT_C;
    connect_type SINGLE_PHASE_CENTER_TAPPED;
    primary_voltage 6928.41 V;
    secondary_voltage 120 V;
    power_rating 25 kVA;
    powerC_rating 25 kVA;
    impedance 0.00055+0.01045j;
}

object transformer{
    name TX_B5076585_A;
    groupid TX_75_A;
    configuration TX_config_B5076585_A;
    from node_B5076585_F_00411;
    to load_56_A;
    phases AS;
    nominal_voltage 6928.41 V;
}
object transformer_configuration {
    name TX_config_B5076585_A;
    connect_type SINGLE_PHASE_CENTER_TAPPED;
    primary_voltage 6928.41 V;
    secondary_voltage 120 V;
    power_rating 75 kVA;
    powerA_rating 75 kVA;
    impedance 0.00055+0.01045j;
}

object transformer{
    name TX_B5077947_A;
    groupid TX_50_A;
    configuration TX_config_B5077947_A;
    from node_B5077947_F_00411;
    to load_57_A;
    phases AS;
    nominal_voltage 6928.41 V;
}
object transformer_configuration {
    name TX_config_B5077947_A;
    connect_type SINGLE_PHASE_CENTER_TAPPED;
    primary_voltage 6928.41 V;
    secondary_voltage 120 V;
    power_rating 50 kVA;
    powerA_rating 50 kVA;
    impedance 0.0005+0.0095j;
}

object transformer{
    name TX_B5078595_A;
    groupid TX_75_A;
    configuration TX_config_B5078595_A;
    from node_B5078595_F_00411;
    to load_58_A;
    phases AS;
    nominal_voltage 6928.41 V;
}
object transformer_configuration {
    name TX_config_B5078595_A;
    connect_type SINGLE_PHASE_CENTER_TAPPED;
    primary_voltage 6928.41 V;
    secondary_voltage 120 V;
    power_rating 75 kVA;
    powerA_rating 75 kVA;
    impedance 0.00055+0.01045j;
}

object transformer{
    name TX_B5074329_A;
    groupid TX_75_A;
    configuration TX_config_B5074329_A;
    from node_B5074329_F_00411;
    to load_59_A;
    phases AS;
    nominal_voltage 6928.41 V;
}
object transformer_configuration {
    name TX_config_B5074329_A;
    connect_type SINGLE_PHASE_CENTER_TAPPED;
    primary_voltage 6928.41 V;
    secondary_voltage 120 V;
    power_rating 75 kVA;
    powerA_rating 75 kVA;
    impedance 0.00055+0.01045j;
}

object transformer{
    name TX_P5074223_A;
    groupid TX_75_A;
    configuration TX_config_P5074223_A;
    from node_P5074223-B_T_00411;
    to load_60_A;
    phases AS;
    nominal_voltage 6928.41 V;
}
object transformer_configuration {
    name TX_config_P5074223_A;
    connect_type SINGLE_PHASE_CENTER_TAPPED;
    primary_voltage 6928.41 V;
    secondary_voltage 120 V;
    power_rating 75 kVA;
    powerA_rating 75 kVA;
    impedance 0.00055+0.01045j;
}

object transformer{
    name TX_B5076616_A;
    groupid TX_75_A;
    configuration TX_config_B5076616_A;
    from node_B5076616_F_00411;
    to load_61_A;
    phases AS;
    nominal_voltage 6928.41 V;
}
object transformer_configuration {
    name TX_config_B5076616_A;
    connect_type SINGLE_PHASE_CENTER_TAPPED;
    primary_voltage 6928.41 V;
    secondary_voltage 120 V;
    power_rating 75 kVA;
    powerA_rating 75 kVA;
    impedance 0.00055+0.01045j;
}

object transformer{
    name TX_V5075701_A;
    groupid TX_1_A;
    configuration TX_config_V5075701_A;
    from node_V5075701_00411;
    to load_62_A;
    phases AS;
    nominal_voltage 6928.41 V;
}
object transformer_configuration {
    name TX_config_V5075701_A;
    connect_type SINGLE_PHASE_CENTER_TAPPED;
    primary_voltage 6928.41 V;
    secondary_voltage 120 V;
    power_rating 1 kVA;
    powerA_rating 1 kVA;
    impedance 0.0005+0.0095j;
}

object transformer{
    name TX_S5075263_A;
    groupid TX_50_A;
    configuration TX_config_S5075263_A;
    from node_S5075263_00411;
    to load_63_A;
    phases AS;
    nominal_voltage 6928.41 V;
}
object transformer_configuration {
    name TX_config_S5075263_A;
    connect_type SINGLE_PHASE_CENTER_TAPPED;
    primary_voltage 6928.41 V;
    secondary_voltage 120 V;
    power_rating 50 kVA;
    powerA_rating 50 kVA;
    impedance 0.00055+0.01045j;
}

object transformer{
    name TX_S5075263_B;
    groupid TX_50_B;
    configuration TX_config_S5075263_B;
    from node_S5075263_00411;
    to load_64_B;
    phases BS;
    nominal_voltage 6928.41 V;
}
object transformer_configuration {
    name TX_config_S5075263_B;
    connect_type SINGLE_PHASE_CENTER_TAPPED;
    primary_voltage 6928.41 V;
    secondary_voltage 120 V;
    power_rating 50 kVA;
    powerB_rating 50 kVA;
    impedance 0.00055+0.01045j;
}

object transformer{
    name TX_S5075263_C;
    groupid TX_50_C;
    configuration TX_config_S5075263_C;
    from node_S5075263_00411;
    to load_65_C;
    phases CS;
    nominal_voltage 6928.41 V;
}
object transformer_configuration {
    name TX_config_S5075263_C;
    connect_type SINGLE_PHASE_CENTER_TAPPED;
    primary_voltage 6928.41 V;
    secondary_voltage 120 V;
    power_rating 50 kVA;
    powerC_rating 50 kVA;
    impedance 0.00055+0.01045j;
}

object transformer{
    name TX_B5546196_A;
    groupid TX_75_A;
    configuration TX_config_B5546196_A;
    from node_B5546196_F_00411;
    to load_66_A;
    phases AS;
    nominal_voltage 6928.41 V;
}
object transformer_configuration {
    name TX_config_B5546196_A;
    connect_type SINGLE_PHASE_CENTER_TAPPED;
    primary_voltage 6928.41 V;
    secondary_voltage 120 V;
    power_rating 75 kVA;
    powerA_rating 75 kVA;
    impedance 0.00055+0.01045j;
}

object transformer{
    name TX_B5079149_A;
    groupid TX_25_A;
    configuration TX_config_B5079149_A;
    from node_B5079149_F_00411;
    to load_67_A;
    phases AS;
    nominal_voltage 6928.41 V;
}
object transformer_configuration {
    name TX_config_B5079149_A;
    connect_type SINGLE_PHASE_CENTER_TAPPED;
    primary_voltage 6928.41 V;
    secondary_voltage 120 V;
    power_rating 25 kVA;
    powerA_rating 25 kVA;
    impedance 0.0005+0.0095j;
}

object transformer{
    name TX_B5075886_A;
    groupid TX_50_A;
    configuration TX_config_B5075886_A;
    from node_B5075886_F_00411;
    to load_68_A;
    phases AS;
    nominal_voltage 6928.41 V;
}
object transformer_configuration {
    name TX_config_B5075886_A;
    connect_type SINGLE_PHASE_CENTER_TAPPED;
    primary_voltage 6928.41 V;
    secondary_voltage 120 V;
    power_rating 50 kVA;
    powerA_rating 50 kVA;
    impedance 0.0005+0.0095j;
}

object transformer{
    name TX_B5546265_A;
    groupid TX_50_A;
    configuration TX_config_B5546265_A;
    from node_B5546265_F_00411;
    to load_69_A;
    phases AS;
    nominal_voltage 6928.41 V;
}
object transformer_configuration {
    name TX_config_B5546265_A;
    connect_type SINGLE_PHASE_CENTER_TAPPED;
    primary_voltage 6928.41 V;
    secondary_voltage 120 V;
    power_rating 50 kVA;
    powerA_rating 50 kVA;
    impedance 0.0005+0.0095j;
}

object transformer{
    name TX_B5072179_A;
    groupid TX_75_A;
    configuration TX_config_B5072179_A;
    from node_B5072179_F_00411;
    to load_70_A;
    phases AS;
    nominal_voltage 6928.41 V;
}
object transformer_configuration {
    name TX_config_B5072179_A;
    connect_type SINGLE_PHASE_CENTER_TAPPED;
    primary_voltage 6928.41 V;
    secondary_voltage 120 V;
    power_rating 75 kVA;
    powerA_rating 75 kVA;
    impedance 0.00055+0.01045j;
}

object transformer{
    name TX_P5444400_A;
    groupid TX_166_667_A;
    configuration TX_config_P5444400_A;
    from node_P5444400-1_T_00411;
    to load_71_A;
    phases AS;
    nominal_voltage 6928.41 V;
}
object transformer_configuration {
    name TX_config_P5444400_A;
    connect_type SINGLE_PHASE_CENTER_TAPPED;
    primary_voltage 6928.41 V;
    secondary_voltage 120 V;
    power_rating 166.667 kVA;
    powerA_rating 166.667 kVA;
    impedance 0.0007+0.0133j;
}

object transformer{
    name TX_P5444400_B;
    groupid TX_166_667_B;
    configuration TX_config_P5444400_B;
    from node_P5444400-1_T_00411;
    to load_72_B;
    phases BS;
    nominal_voltage 6928.41 V;
}
object transformer_configuration {
    name TX_config_P5444400_B;
    connect_type SINGLE_PHASE_CENTER_TAPPED;
    primary_voltage 6928.41 V;
    secondary_voltage 120 V;
    power_rating 166.667 kVA;
    powerB_rating 166.667 kVA;
    impedance 0.0007+0.0133j;
}

object transformer{
    name TX_P5444400_C;
    groupid TX_166_667_C;
    configuration TX_config_P5444400_C;
    from node_P5444400-1_T_00411;
    to load_73_C;
    phases CS;
    nominal_voltage 6928.41 V;
}
object transformer_configuration {
    name TX_config_P5444400_C;
    connect_type SINGLE_PHASE_CENTER_TAPPED;
    primary_voltage 6928.41 V;
    secondary_voltage 120 V;
    power_rating 166.667 kVA;
    powerC_rating 166.667 kVA;
    impedance 0.0007+0.0133j;
}

object transformer{
    name TX_B5077099_A;
    groupid TX_75_A;
    configuration TX_config_B5077099_A;
    from node_B5077099_F_00411;
    to load_74_A;
    phases AS;
    nominal_voltage 6928.41 V;
}
object transformer_configuration {
    name TX_config_B5077099_A;
    connect_type SINGLE_PHASE_CENTER_TAPPED;
    primary_voltage 6928.41 V;
    secondary_voltage 120 V;
    power_rating 75 kVA;
    powerA_rating 75 kVA;
    impedance 0.00055+0.01045j;
}

object transformer{
    name TX_J0058-2PT_A;
    groupid TX_100_A;
    configuration TX_config_J0058-2PT_A;
    from node_J0058-2_F_00411;
    to load_75_A;
    phases AS;
    nominal_voltage 6928.41 V;
}
object transformer_configuration {
    name TX_config_J0058-2PT_A;
    connect_type SINGLE_PHASE_CENTER_TAPPED;
    primary_voltage 6928.41 V;
    secondary_voltage 120 V;
    power_rating 100 kVA;
    powerA_rating 100 kVA;
    impedance 0.00055+0.01045j;
}

object transformer{
    name TX_J0058-2PT_B;
    groupid TX_100_B;
    configuration TX_config_J0058-2PT_B;
    from node_J0058-2_F_00411;
    to load_76_B;
    phases BS;
    nominal_voltage 6928.41 V;
}
object transformer_configuration {
    name TX_config_J0058-2PT_B;
    connect_type SINGLE_PHASE_CENTER_TAPPED;
    primary_voltage 6928.41 V;
    secondary_voltage 120 V;
    power_rating 100 kVA;
    powerB_rating 100 kVA;
    impedance 0.00055+0.01045j;
}

object transformer{
    name TX_J0058-2PT_C;
    groupid TX_100_C;
    configuration TX_config_J0058-2PT_C;
    from node_J0058-2_F_00411;
    to load_77_C;
    phases CS;
    nominal_voltage 6928.41 V;
}
object transformer_configuration {
    name TX_config_J0058-2PT_C;
    connect_type SINGLE_PHASE_CENTER_TAPPED;
    primary_voltage 6928.41 V;
    secondary_voltage 120 V;
    power_rating 100 kVA;
    powerC_rating 100 kVA;
    impedance 0.00055+0.01045j;
}

object transformer{
    name TX_B5074328_A;
    groupid TX_50_A;
    configuration TX_config_B5074328_A;
    from node_B5074328_F_00411;
    to load_78_A;
    phases AS;
    nominal_voltage 6928.41 V;
}
object transformer_configuration {
    name TX_config_B5074328_A;
    connect_type SINGLE_PHASE_CENTER_TAPPED;
    primary_voltage 6928.41 V;
    secondary_voltage 120 V;
    power_rating 50 kVA;
    powerA_rating 50 kVA;
    impedance 0.0005+0.0095j;
}

object transformer{
    name TX_B5077097_A;
    groupid TX_75_A;
    configuration TX_config_B5077097_A;
    from node_B5077097_F_00411;
    to load_79_A;
    phases AS;
    nominal_voltage 6928.41 V;
}
object transformer_configuration {
    name TX_config_B5077097_A;
    connect_type SINGLE_PHASE_CENTER_TAPPED;
    primary_voltage 6928.41 V;
    secondary_voltage 120 V;
    power_rating 75 kVA;
    powerA_rating 75 kVA;
    impedance 0.00055+0.01045j;
}

object transformer{
    name TX_B5300941_A;
    groupid TX_50_A;
    configuration TX_config_B5300941_A;
    from node_B5300941_F_00411;
    to load_80_A;
    phases AS;
    nominal_voltage 6928.41 V;
}
object transformer_configuration {
    name TX_config_B5300941_A;
    connect_type SINGLE_PHASE_CENTER_TAPPED;
    primary_voltage 6928.41 V;
    secondary_voltage 120 V;
    power_rating 50 kVA;
    powerA_rating 50 kVA;
    impedance 0.0005+0.0095j;
}

object transformer{
    name TX_P5518257_A;
    groupid TX_833_333_A;
    configuration TX_config_P5518257_A;
    from node_P5518257_00411;
    to load_81_A;
    phases AS;
    nominal_voltage 6928.41 V;
}
object transformer_configuration {
    name TX_config_P5518257_A;
    connect_type SINGLE_PHASE_CENTER_TAPPED;
    primary_voltage 6928.41 V;
    secondary_voltage 120 V;
    power_rating 833.333 kVA;
    powerA_rating 833.333 kVA;
    impedance 0.002875+0.054625j;
}

object transformer{
    name TX_P5518257_B;
    groupid TX_833_333_B;
    configuration TX_config_P5518257_B;
    from node_P5518257_00411;
    to load_82_B;
    phases BS;
    nominal_voltage 6928.41 V;
}
object transformer_configuration {
    name TX_config_P5518257_B;
    connect_type SINGLE_PHASE_CENTER_TAPPED;
    primary_voltage 6928.41 V;
    secondary_voltage 120 V;
    power_rating 833.333 kVA;
    powerB_rating 833.333 kVA;
    impedance 0.002875+0.054625j;
}

object transformer{
    name TX_P5518257_C;
    groupid TX_833_333_C;
    configuration TX_config_P5518257_C;
    from node_P5518257_00411;
    to load_83_C;
    phases CS;
    nominal_voltage 6928.41 V;
}
object transformer_configuration {
    name TX_config_P5518257_C;
    connect_type SINGLE_PHASE_CENTER_TAPPED;
    primary_voltage 6928.41 V;
    secondary_voltage 120 V;
    power_rating 833.333 kVA;
    powerC_rating 833.333 kVA;
    impedance 0.002875+0.054625j;
}

object transformer{
    name TX_B5078583_A;
    groupid TX_50_A;
    configuration TX_config_B5078583_A;
    from node_B5078583_F_00411;
    to load_84_A;
    phases AS;
    nominal_voltage 6928.41 V;
}
object transformer_configuration {
    name TX_config_B5078583_A;
    connect_type SINGLE_PHASE_CENTER_TAPPED;
    primary_voltage 6928.41 V;
    secondary_voltage 120 V;
    power_rating 50 kVA;
    powerA_rating 50 kVA;
    impedance 0.0005+0.0095j;
}

object transformer{
    name TX_B5076591_A;
    groupid TX_75_A;
    configuration TX_config_B5076591_A;
    from node_B5076591_F_00411;
    to load_85_A;
    phases AS;
    nominal_voltage 6928.41 V;
}
object transformer_configuration {
    name TX_config_B5076591_A;
    connect_type SINGLE_PHASE_CENTER_TAPPED;
    primary_voltage 6928.41 V;
    secondary_voltage 120 V;
    power_rating 75 kVA;
    powerA_rating 75 kVA;
    impedance 0.00055+0.01045j;
}

object transformer{
    name TX_B5075884_A;
    groupid TX_50_A;
    configuration TX_config_B5075884_A;
    from node_B5075884_F_00411;
    to load_86_A;
    phases AS;
    nominal_voltage 6928.41 V;
}
object transformer_configuration {
    name TX_config_B5075884_A;
    connect_type SINGLE_PHASE_CENTER_TAPPED;
    primary_voltage 6928.41 V;
    secondary_voltage 120 V;
    power_rating 50 kVA;
    powerA_rating 50 kVA;
    impedance 0.0005+0.0095j;
}

object transformer{
    name TX_P5077110_A;
    groupid TX_50_A;
    configuration TX_config_P5077110_A;
    from node_P5077110-T_F_00411;
    to load_87_A;
    phases AS;
    nominal_voltage 6928.41 V;
}
object transformer_configuration {
    name TX_config_P5077110_A;
    connect_type SINGLE_PHASE_CENTER_TAPPED;
    primary_voltage 6928.41 V;
    secondary_voltage 120 V;
    power_rating 50 kVA;
    powerA_rating 50 kVA;
    impedance 0.00055+0.01045j;
}

object transformer{
    name TX_P5077110_B;
    groupid TX_50_B;
    configuration TX_config_P5077110_B;
    from node_P5077110-T_F_00411;
    to load_88_B;
    phases BS;
    nominal_voltage 6928.41 V;
}
object transformer_configuration {
    name TX_config_P5077110_B;
    connect_type SINGLE_PHASE_CENTER_TAPPED;
    primary_voltage 6928.41 V;
    secondary_voltage 120 V;
    power_rating 50 kVA;
    powerB_rating 50 kVA;
    impedance 0.00055+0.01045j;
}

object transformer{
    name TX_P5077110_C;
    groupid TX_50_C;
    configuration TX_config_P5077110_C;
    from node_P5077110-T_F_00411;
    to load_89_C;
    phases CS;
    nominal_voltage 6928.41 V;
}
object transformer_configuration {
    name TX_config_P5077110_C;
    connect_type SINGLE_PHASE_CENTER_TAPPED;
    primary_voltage 6928.41 V;
    secondary_voltage 120 V;
    power_rating 50 kVA;
    powerC_rating 50 kVA;
    impedance 0.00055+0.01045j;
}

object transformer{
    name TX_P5077111_A;
    groupid TX_50_A;
    configuration TX_config_P5077111_A;
    from node_P5077111-T_F_00411;
    to load_90_A;
    phases AS;
    nominal_voltage 6928.41 V;
}
object transformer_configuration {
    name TX_config_P5077111_A;
    connect_type SINGLE_PHASE_CENTER_TAPPED;
    primary_voltage 6928.41 V;
    secondary_voltage 120 V;
    power_rating 50 kVA;
    powerA_rating 50 kVA;
    impedance 0.00055+0.01045j;
}

object transformer{
    name TX_P5077111_B;
    groupid TX_50_B;
    configuration TX_config_P5077111_B;
    from node_P5077111-T_F_00411;
    to load_91_B;
    phases BS;
    nominal_voltage 6928.41 V;
}
object transformer_configuration {
    name TX_config_P5077111_B;
    connect_type SINGLE_PHASE_CENTER_TAPPED;
    primary_voltage 6928.41 V;
    secondary_voltage 120 V;
    power_rating 50 kVA;
    powerB_rating 50 kVA;
    impedance 0.00055+0.01045j;
}

object transformer{
    name TX_P5077111_C;
    groupid TX_50_C;
    configuration TX_config_P5077111_C;
    from node_P5077111-T_F_00411;
    to load_92_C;
    phases CS;
    nominal_voltage 6928.41 V;
}
object transformer_configuration {
    name TX_config_P5077111_C;
    connect_type SINGLE_PHASE_CENTER_TAPPED;
    primary_voltage 6928.41 V;
    secondary_voltage 120 V;
    power_rating 50 kVA;
    powerC_rating 50 kVA;
    impedance 0.00055+0.01045j;
}

object transformer{
    name TX_B5072680_A;
    groupid TX_75_A;
    configuration TX_config_B5072680_A;
    from node_B5072680_F_00411;
    to load_93_A;
    phases AS;
    nominal_voltage 6928.41 V;
}
object transformer_configuration {
    name TX_config_B5072680_A;
    connect_type SINGLE_PHASE_CENTER_TAPPED;
    primary_voltage 6928.41 V;
    secondary_voltage 120 V;
    power_rating 75 kVA;
    powerA_rating 75 kVA;
    impedance 0.00055+0.01045j;
}

object transformer{
    name TX_B5079144_A;
    groupid TX_50_A;
    configuration TX_config_B5079144_A;
    from node_B5079144_F_00411;
    to load_94_A;
    phases AS;
    nominal_voltage 6928.41 V;
}
object transformer_configuration {
    name TX_config_B5079144_A;
    connect_type SINGLE_PHASE_CENTER_TAPPED;
    primary_voltage 6928.41 V;
    secondary_voltage 120 V;
    power_rating 50 kVA;
    powerA_rating 50 kVA;
    impedance 0.0005+0.0095j;
}

object transformer{
    name TX_B5078591_A;
    groupid TX_75_A;
    configuration TX_config_B5078591_A;
    from node_B5078591_F_00411;
    to load_95_A;
    phases AS;
    nominal_voltage 6928.41 V;
}
object transformer_configuration {
    name TX_config_B5078591_A;
    connect_type SINGLE_PHASE_CENTER_TAPPED;
    primary_voltage 6928.41 V;
    secondary_voltage 120 V;
    power_rating 75 kVA;
    powerA_rating 75 kVA;
    impedance 0.00055+0.01045j;
}

object transformer{
    name TX_B5072193_A;
    groupid TX_75_A;
    configuration TX_config_B5072193_A;
    from node_B5072193_F_00411;
    to load_96_A;
    phases AS;
    nominal_voltage 6928.41 V;
}
object transformer_configuration {
    name TX_config_B5072193_A;
    connect_type SINGLE_PHASE_CENTER_TAPPED;
    primary_voltage 6928.41 V;
    secondary_voltage 120 V;
    power_rating 75 kVA;
    powerA_rating 75 kVA;
    impedance 0.00055+0.01045j;
}

object transformer{
    name TX_B5078589_A;
    groupid TX_75_A;
    configuration TX_config_B5078589_A;
    from node_B5078589_F_00411;
    to load_97_A;
    phases AS;
    nominal_voltage 6928.41 V;
}
object transformer_configuration {
    name TX_config_B5078589_A;
    connect_type SINGLE_PHASE_CENTER_TAPPED;
    primary_voltage 6928.41 V;
    secondary_voltage 120 V;
    power_rating 75 kVA;
    powerA_rating 75 kVA;
    impedance 0.00055+0.01045j;
}

object transformer{
    name TX_B5078580_A;
    groupid TX_75_A;
    configuration TX_config_B5078580_A;
    from node_B5078580_F_00411;
    to load_98_A;
    phases AS;
    nominal_voltage 6928.41 V;
}
object transformer_configuration {
    name TX_config_B5078580_A;
    connect_type SINGLE_PHASE_CENTER_TAPPED;
    primary_voltage 6928.41 V;
    secondary_voltage 120 V;
    power_rating 75 kVA;
    powerA_rating 75 kVA;
    impedance 0.00055+0.01045j;
}

object transformer{
    name TX_B5072192_A;
    groupid TX_75_A;
    configuration TX_config_B5072192_A;
    from node_B5072192_F_00411;
    to load_99_A;
    phases AS;
    nominal_voltage 6928.41 V;
}
object transformer_configuration {
    name TX_config_B5072192_A;
    connect_type SINGLE_PHASE_CENTER_TAPPED;
    primary_voltage 6928.41 V;
    secondary_voltage 120 V;
    power_rating 75 kVA;
    powerA_rating 75 kVA;
    impedance 0.00055+0.01045j;
}

object transformer{
    name TX_B5078588_A;
    groupid TX_50_A;
    configuration TX_config_B5078588_A;
    from node_B5078588_F_00411;
    to load_100_A;
    phases AS;
    nominal_voltage 6928.41 V;
}
object transformer_configuration {
    name TX_config_B5078588_A;
    connect_type SINGLE_PHASE_CENTER_TAPPED;
    primary_voltage 6928.41 V;
    secondary_voltage 120 V;
    power_rating 50 kVA;
    powerA_rating 50 kVA;
    impedance 0.0005+0.0095j;
}

object transformer{
    name TX_P5079150_A;
    groupid TX_50_A;
    configuration TX_config_P5079150_A;
    from node_P5079150-1_T_00411;
    to load_101_A;
    phases AS;
    nominal_voltage 6928.41 V;
}
object transformer_configuration {
    name TX_config_P5079150_A;
    connect_type SINGLE_PHASE_CENTER_TAPPED;
    primary_voltage 6928.41 V;
    secondary_voltage 120 V;
    power_rating 50 kVA;
    powerA_rating 50 kVA;
    impedance 0.00055+0.01045j;
}

object transformer{
    name TX_P5079150_B;
    groupid TX_50_B;
    configuration TX_config_P5079150_B;
    from node_P5079150-1_T_00411;
    to load_102_B;
    phases BS;
    nominal_voltage 6928.41 V;
}
object transformer_configuration {
    name TX_config_P5079150_B;
    connect_type SINGLE_PHASE_CENTER_TAPPED;
    primary_voltage 6928.41 V;
    secondary_voltage 120 V;
    power_rating 50 kVA;
    powerB_rating 50 kVA;
    impedance 0.00055+0.01045j;
}

object transformer{
    name TX_P5079150_C;
    groupid TX_50_C;
    configuration TX_config_P5079150_C;
    from node_P5079150-1_T_00411;
    to load_103_C;
    phases CS;
    nominal_voltage 6928.41 V;
}
object transformer_configuration {
    name TX_config_P5079150_C;
    connect_type SINGLE_PHASE_CENTER_TAPPED;
    primary_voltage 6928.41 V;
    secondary_voltage 120 V;
    power_rating 50 kVA;
    powerC_rating 50 kVA;
    impedance 0.00055+0.01045j;
}

object transformer{
    name TX_B5079818_A;
    groupid TX_50_A;
    configuration TX_config_B5079818_A;
    from node_B5079818_F_00411;
    to load_104_A;
    phases AS;
    nominal_voltage 6928.41 V;
}
object transformer_configuration {
    name TX_config_B5079818_A;
    connect_type SINGLE_PHASE_CENTER_TAPPED;
    primary_voltage 6928.41 V;
    secondary_voltage 120 V;
    power_rating 50 kVA;
    powerA_rating 50 kVA;
    impedance 0.0005+0.0095j;
}

object transformer{
    name TX_P5468245_A;
    groupid TX_50_A;
    configuration TX_config_P5468245_A;
    from node_P5468245_00411;
    to load_105_A;
    phases AS;
    nominal_voltage 6928.41 V;
}
object transformer_configuration {
    name TX_config_P5468245_A;
    connect_type SINGLE_PHASE_CENTER_TAPPED;
    primary_voltage 6928.41 V;
    secondary_voltage 120 V;
    power_rating 50 kVA;
    powerA_rating 50 kVA;
    impedance 0.00055+0.01045j;
}

object transformer{
    name TX_P5468245_B;
    groupid TX_50_B;
    configuration TX_config_P5468245_B;
    from node_P5468245_00411;
    to load_106_B;
    phases BS;
    nominal_voltage 6928.41 V;
}
object transformer_configuration {
    name TX_config_P5468245_B;
    connect_type SINGLE_PHASE_CENTER_TAPPED;
    primary_voltage 6928.41 V;
    secondary_voltage 120 V;
    power_rating 50 kVA;
    powerB_rating 50 kVA;
    impedance 0.00055+0.01045j;
}

object transformer{
    name TX_P5468245_C;
    groupid TX_50_C;
    configuration TX_config_P5468245_C;
    from node_P5468245_00411;
    to load_107_C;
    phases CS;
    nominal_voltage 6928.41 V;
}
object transformer_configuration {
    name TX_config_P5468245_C;
    connect_type SINGLE_PHASE_CENTER_TAPPED;
    primary_voltage 6928.41 V;
    secondary_voltage 120 V;
    power_rating 50 kVA;
    powerC_rating 50 kVA;
    impedance 0.00055+0.01045j;
}

object transformer{
    name TX_B5078587_A;
    groupid TX_75_A;
    configuration TX_config_B5078587_A;
    from node_B5078587_F_00411;
    to load_108_A;
    phases AS;
    nominal_voltage 6928.41 V;
}
object transformer_configuration {
    name TX_config_B5078587_A;
    connect_type SINGLE_PHASE_CENTER_TAPPED;
    primary_voltage 6928.41 V;
    secondary_voltage 120 V;
    power_rating 75 kVA;
    powerA_rating 75 kVA;
    impedance 0.00055+0.01045j;
}

object transformer{
    name TX_P5517589_A;
    groupid TX_75_A;
    configuration TX_config_P5517589_A;
    from node_P5517589-1_T_00411;
    to load_109_A;
    phases AS;
    nominal_voltage 6928.41 V;
}
object transformer_configuration {
    name TX_config_P5517589_A;
    connect_type SINGLE_PHASE_CENTER_TAPPED;
    primary_voltage 6928.41 V;
    secondary_voltage 120 V;
    power_rating 75 kVA;
    powerA_rating 75 kVA;
    impedance 0.00055+0.01045j;
}

object transformer{
    name TX_P5517589_B;
    groupid TX_75_B;
    configuration TX_config_P5517589_B;
    from node_P5517589-1_T_00411;
    to load_110_B;
    phases BS;
    nominal_voltage 6928.41 V;
}
object transformer_configuration {
    name TX_config_P5517589_B;
    connect_type SINGLE_PHASE_CENTER_TAPPED;
    primary_voltage 6928.41 V;
    secondary_voltage 120 V;
    power_rating 75 kVA;
    powerB_rating 75 kVA;
    impedance 0.00055+0.01045j;
}

object transformer{
    name TX_P5517589_C;
    groupid TX_75_C;
    configuration TX_config_P5517589_C;
    from node_P5517589-1_T_00411;
    to load_111_C;
    phases CS;
    nominal_voltage 6928.41 V;
}
object transformer_configuration {
    name TX_config_P5517589_C;
    connect_type SINGLE_PHASE_CENTER_TAPPED;
    primary_voltage 6928.41 V;
    secondary_voltage 120 V;
    power_rating 75 kVA;
    powerC_rating 75 kVA;
    impedance 0.00055+0.01045j;
}

object transformer{
    name TX_B5077946_A;
    groupid TX_75_A;
    configuration TX_config_B5077946_A;
    from node_B5077946_F_00411;
    to load_112_A;
    phases AS;
    nominal_voltage 6928.41 V;
}
object transformer_configuration {
    name TX_config_B5077946_A;
    connect_type SINGLE_PHASE_CENTER_TAPPED;
    primary_voltage 6928.41 V;
    secondary_voltage 120 V;
    power_rating 75 kVA;
    powerA_rating 75 kVA;
    impedance 0.00055+0.01045j;
}

object transformer{
    name TX_P5078482_A;
    groupid TX_75_A;
    configuration TX_config_P5078482_A;
    from node_P5078482-1_T_00411;
    to load_113_A;
    phases AS;
    nominal_voltage 6928.41 V;
}
object transformer_configuration {
    name TX_config_P5078482_A;
    connect_type SINGLE_PHASE_CENTER_TAPPED;
    primary_voltage 6928.41 V;
    secondary_voltage 120 V;
    power_rating 75 kVA;
    powerA_rating 75 kVA;
    impedance 0.00055+0.01045j;
}

object transformer{
    name TX_P5078482_B;
    groupid TX_75_B;
    configuration TX_config_P5078482_B;
    from node_P5078482-1_T_00411;
    to load_114_B;
    phases BS;
    nominal_voltage 6928.41 V;
}
object transformer_configuration {
    name TX_config_P5078482_B;
    connect_type SINGLE_PHASE_CENTER_TAPPED;
    primary_voltage 6928.41 V;
    secondary_voltage 120 V;
    power_rating 75 kVA;
    powerB_rating 75 kVA;
    impedance 0.00055+0.01045j;
}

object transformer{
    name TX_P5078482_C;
    groupid TX_75_C;
    configuration TX_config_P5078482_C;
    from node_P5078482-1_T_00411;
    to load_115_C;
    phases CS;
    nominal_voltage 6928.41 V;
}
object transformer_configuration {
    name TX_config_P5078482_C;
    connect_type SINGLE_PHASE_CENTER_TAPPED;
    primary_voltage 6928.41 V;
    secondary_voltage 120 V;
    power_rating 75 kVA;
    powerC_rating 75 kVA;
    impedance 0.00055+0.01045j;
}

object transformer{
    name TX_B5078597_A;
    groupid TX_75_A;
    configuration TX_config_B5078597_A;
    from node_B5078597_F_00411;
    to load_116_A;
    phases AS;
    nominal_voltage 6928.41 V;
}
object transformer_configuration {
    name TX_config_B5078597_A;
    connect_type SINGLE_PHASE_CENTER_TAPPED;
    primary_voltage 6928.41 V;
    secondary_voltage 120 V;
    power_rating 75 kVA;
    powerA_rating 75 kVA;
    impedance 0.00055+0.01045j;
}

object transformer{
    name TX_B5079145_A;
    groupid TX_75_A;
    configuration TX_config_B5079145_A;
    from node_B5079145_F_00411;
    to load_117_A;
    phases AS;
    nominal_voltage 6928.41 V;
}
object transformer_configuration {
    name TX_config_B5079145_A;
    connect_type SINGLE_PHASE_CENTER_TAPPED;
    primary_voltage 6928.41 V;
    secondary_voltage 120 V;
    power_rating 75 kVA;
    powerA_rating 75 kVA;
    impedance 0.00055+0.01045j;
}

object transformer{
    name TX_P5539379_A;
    groupid TX_333_333_A;
    configuration TX_config_P5539379_A;
    from node_P5539379-1_T_00411;
    to load_118_A;
    phases AS;
    nominal_voltage 6928.41 V;
}
object transformer_configuration {
    name TX_config_P5539379_A;
    connect_type SINGLE_PHASE_CENTER_TAPPED;
    primary_voltage 6928.41 V;
    secondary_voltage 120 V;
    power_rating 333.333 kVA;
    powerA_rating 333.333 kVA;
    impedance 0.00275+0.05225j;
}

object transformer{
    name TX_P5539379_B;
    groupid TX_333_333_B;
    configuration TX_config_P5539379_B;
    from node_P5539379-1_T_00411;
    to load_119_B;
    phases BS;
    nominal_voltage 6928.41 V;
}
object transformer_configuration {
    name TX_config_P5539379_B;
    connect_type SINGLE_PHASE_CENTER_TAPPED;
    primary_voltage 6928.41 V;
    secondary_voltage 120 V;
    power_rating 333.333 kVA;
    powerB_rating 333.333 kVA;
    impedance 0.00275+0.05225j;
}

object transformer{
    name TX_P5539379_C;
    groupid TX_333_333_C;
    configuration TX_config_P5539379_C;
    from node_P5539379-1_T_00411;
    to load_120_C;
    phases CS;
    nominal_voltage 6928.41 V;
}
object transformer_configuration {
    name TX_config_P5539379_C;
    connect_type SINGLE_PHASE_CENTER_TAPPED;
    primary_voltage 6928.41 V;
    secondary_voltage 120 V;
    power_rating 333.333 kVA;
    powerC_rating 333.333 kVA;
    impedance 0.00275+0.05225j;
}

object transformer{
    name TX_B5076612_A;
    groupid TX_75_A;
    configuration TX_config_B5076612_A;
    from node_B5076612_F_00411;
    to load_121_A;
    phases AS;
    nominal_voltage 6928.41 V;
}
object transformer_configuration {
    name TX_config_B5076612_A;
    connect_type SINGLE_PHASE_CENTER_TAPPED;
    primary_voltage 6928.41 V;
    secondary_voltage 120 V;
    power_rating 75 kVA;
    powerA_rating 75 kVA;
    impedance 0.00055+0.01045j;
}

object transformer{
    name TX_B5546195_A;
    groupid TX_50_A;
    configuration TX_config_B5546195_A;
    from node_B5546195_F_00411;
    to load_122_A;
    phases AS;
    nominal_voltage 6928.41 V;
}
object transformer_configuration {
    name TX_config_B5546195_A;
    connect_type SINGLE_PHASE_CENTER_TAPPED;
    primary_voltage 6928.41 V;
    secondary_voltage 120 V;
    power_rating 50 kVA;
    powerA_rating 50 kVA;
    impedance 0.0005+0.0095j;
}

object transformer{
    name TX_P5074222_A;
    groupid TX_75_A;
    configuration TX_config_P5074222_A;
    from node_P5074222_F_00411;
    to load_123_A;
    phases AS;
    nominal_voltage 6928.41 V;
}
object transformer_configuration {
    name TX_config_P5074222_A;
    connect_type SINGLE_PHASE_CENTER_TAPPED;
    primary_voltage 6928.41 V;
    secondary_voltage 120 V;
    power_rating 75 kVA;
    powerA_rating 75 kVA;
    impedance 0.00055+0.01045j;
}

object transformer{
    name TX_B5546193_A;
    groupid TX_75_A;
    configuration TX_config_B5546193_A;
    from node_B5546193_F_00411;
    to load_124_A;
    phases AS;
    nominal_voltage 6928.41 V;
}
object transformer_configuration {
    name TX_config_B5546193_A;
    connect_type SINGLE_PHASE_CENTER_TAPPED;
    primary_voltage 6928.41 V;
    secondary_voltage 120 V;
    power_rating 75 kVA;
    powerA_rating 75 kVA;
    impedance 0.00055+0.01045j;
}

object transformer{
    name TX_B5072190_A;
    groupid TX_75_A;
    configuration TX_config_B5072190_A;
    from node_B5072190_F_00411;
    to load_125_A;
    phases AS;
    nominal_voltage 6928.41 V;
}
object transformer_configuration {
    name TX_config_B5072190_A;
    connect_type SINGLE_PHASE_CENTER_TAPPED;
    primary_voltage 6928.41 V;
    secondary_voltage 120 V;
    power_rating 75 kVA;
    powerA_rating 75 kVA;
    impedance 0.00055+0.01045j;
}

object transformer{
    name TX_B5076618_A;
    groupid TX_75_A;
    configuration TX_config_B5076618_A;
    from node_B5076618_F_00411;
    to load_126_A;
    phases AS;
    nominal_voltage 6928.41 V;
}
object transformer_configuration {
    name TX_config_B5076618_A;
    connect_type SINGLE_PHASE_CENTER_TAPPED;
...