VADER_model/aluminum/aluminum_nodes.glm
/////////////////////////////////////////////////////////////////////////////
//
// GridLAB-D service model configuration control file
// Copyright (C) 2016, SLAC National Accelerator Laboratory
// Author: Alyona Ivanova
//
/////////////////////////////////////////////////////////////////////////////

object node {
	name node_00411;
	    phases ABC;
	    nominal_voltage 6928.41 V;
}


object node{
name node_P5073042-A_T_00411;
groupid primary;
phases ABCN;
nominal_voltage 6928.41 V;
} 

object node{
name node_176256939_00411;
groupid primary;
phases ABCN;
nominal_voltage 6928.41 V;
} 

object node{
name node_74914265_00411;
groupid primary;
phases A;
nominal_voltage 6928.41 V;
} 

object node{
name node_B5072184-1_00411;
groupid primary;
phases A;
nominal_voltage 6928.41 V;
} 

object node{
name node_B5076614-2_00411;
groupid primary;
phases A;
nominal_voltage 6928.41 V;
} 

object node{
name node_B5076591_F_00411;
groupid primary;
phases A;
nominal_voltage 6928.41 V;
} 

object node{
name node_B5072186-2_00411;
groupid primary;
phases A;
nominal_voltage 6928.41 V;
} 

object node{
name node_B5074335-1_00411;
groupid primary;
phases ABN;
nominal_voltage 6928.41 V;
} 

object node{
name node_B5078587-2_00411;
groupid primary;
phases A;
nominal_voltage 6928.41 V;
} 

object node{
name node_OS0970-4_00411;
groupid primary;
phases ABCN;
nominal_voltage 6928.41 V;
} 

object node{
name node_ND137845044_00411;
groupid primary;
phases ABCN;
nominal_voltage 6928.41 V;
} 

object node{
name node_ND26587359_00411;
groupid primary;
phases ABCN;
nominal_voltage 6928.41 V;
} 

object node{
name node_ND137845338_00411;
groupid primary;
phases A;
nominal_voltage 6928.41 V;
} 

object node{
name node_26532263_00411;
groupid primary;
phases ABCN;
nominal_voltage 6928.41 V;
} 

object node{
name node_OS0487-4_00411;
groupid primary;
phases ABCN;
nominal_voltage 6928.41 V;
} 

object node{
name node_B5078587_F_00411;
groupid primary;
phases A;
nominal_voltage 6928.41 V;
} 

object node{
name node_P5539379-1_T_00411;
groupid primary;
phases ABCN;
nominal_voltage 6928.41 V;
} 

object node{
name node_P5517589-1_00411;
groupid primary;
phases ABCN;
nominal_voltage 6928.41 V;
} 

object node{
name node_B5077955_F_00411;
groupid primary;
phases A;
nominal_voltage 6928.41 V;
} 

object node{
name node_OS0487-1_00411;
groupid primary;
phases ABCN;
nominal_voltage 6928.41 V;
} 

object node{
name node_B5076617_F_00411;
groupid primary;
phases A;
nominal_voltage 6928.41 V;
} 

object node{
name node_GS0733-1_00411;
groupid primary;
phases ABCN;
nominal_voltage 6928.41 V;
} 

object node{
name node_B5077955-1_00411;
groupid primary;
phases A;
nominal_voltage 6928.41 V;
} 

object node{
name node_B5300939-1_00411;
groupid primary;
phases A;
nominal_voltage 6928.41 V;
} 

object node{
name node_B5077948_F_00411;
groupid primary;
phases A;
nominal_voltage 6928.41 V;
} 

object node{
name node_B5076617-2_00411;
groupid primary;
phases A;
nominal_voltage 6928.41 V;
} 

object node{
name node_P5074221-A_00411;
groupid primary;
phases ABN;
nominal_voltage 6928.41 V;
} 

object node{
name node_B5072680_F_00411;
groupid primary;
phases A;
nominal_voltage 6928.41 V;
} 

object node{
name node_B5072680-1_00411;
groupid primary;
phases A;
nominal_voltage 6928.41 V;
} 

object node{
name node_ND26587063_00411;
groupid primary;
phases ABCN;
nominal_voltage 6928.41 V;
} 

object node{
name node_B5072167-1_00411;
groupid primary;
phases A;
nominal_voltage 6928.41 V;
} 

object node{
name node_ND26586940_00411;
groupid primary;
phases A;
nominal_voltage 6928.41 V;
} 

object node{
name node_BS0730-1_00411_1;
groupid primary;
phases A;
nominal_voltage 6928.41 V;
} 

object node{
name node_26494058_00411;
groupid primary;
phases ABCN;
nominal_voltage 6928.41 V;
} 

object node{
name node_GS0733-1_00411_1;
groupid primary;
phases ABCN;
nominal_voltage 6928.41 V;
} 

object node{
name node_P5074222-2_00411;
groupid primary;
phases ABN;
nominal_voltage 6928.41 V;
} 

object node{
name node_B5077099_F_00411;
groupid primary;
phases A;
nominal_voltage 6928.41 V;
} 

object node{
name node_B5300940_F_00411;
groupid primary;
phases A;
nominal_voltage 6928.41 V;
} 

object node{
name node_V5077788_00411;
groupid primary;
phases A;
nominal_voltage 6928.41 V;
} 

object node{
name node_B5076612_F_00411;
groupid primary;
phases A;
nominal_voltage 6928.41 V;
} 

object node{
name node_B5072178-2_00411;
groupid primary;
phases A;
nominal_voltage 6928.41 V;
} 

object node{
name node_B5077948-2_00411;
groupid primary;
phases A;
nominal_voltage 6928.41 V;
} 

object node{
name node_BS8574-1_00411;
groupid primary;
phases A;
nominal_voltage 6928.41 V;
} 

object node{
name node_B5079145-2_00411;
groupid primary;
phases A;
nominal_voltage 6928.41 V;
} 

object node{
name node_ND138486100_00411;
groupid primary;
phases ABCN;
nominal_voltage 6928.41 V;
} 

object node{
name node_ND135145633_00411;
groupid primary;
phases ABCN;
nominal_voltage 6928.41 V;
} 

object node{
name node_OS0970-5_00411_1;
groupid primary;
phases ABCN;
nominal_voltage 6928.41 V;
} 

object node{
name node_B5072184_F_00411;
groupid primary;
phases A;
nominal_voltage 6928.41 V;
} 

object node{
name node_BS0728-1_00411_1;
groupid primary;
phases A;
nominal_voltage 6928.41 V;
} 

object node{
name node_BS2035-1_T_00411;
groupid primary;
phases ABCN;
nominal_voltage 6928.41 V;
} 

object node{
name node_B5072195-2_00411;
groupid primary;
phases A;
nominal_voltage 6928.41 V;
} 

object node{
name node_161695044_00411;
groupid primary;
phases ABN;
nominal_voltage 6928.41 V;
} 

object node{
name node_B5546196_F_00411;
groupid primary;
phases A;
nominal_voltage 6928.41 V;
} 

object node{
name node_BS5243-T_T_00411;
groupid primary;
phases ABCN;
nominal_voltage 6928.41 V;
} 

object node{
name node_B5078590-2_00411;
groupid primary;
phases A;
nominal_voltage 6928.41 V;
} 

object node{
name node_26494262_00411;
groupid primary;
phases ABCN;
nominal_voltage 6928.41 V;
} 

object node{
name node_B5300938-1_00411;
groupid primary;
phases A;
nominal_voltage 6928.41 V;
} 

object node{
name node_B5076587-1_00411;
groupid primary;
phases A;
nominal_voltage 6928.41 V;
} 

object node{
name node_B5300944-2_00411;
groupid primary;
phases A;
nominal_voltage 6928.41 V;
} 

object node{
name node_B5072192_F_00411;
groupid primary;
phases A;
nominal_voltage 6928.41 V;
} 

object node{
name node_B5072180-2_00411;
groupid primary;
phases A;
nominal_voltage 6928.41 V;
} 

object node{
name node_BS0810-T_00411;
groupid primary;
phases ABCN;
nominal_voltage 6928.41 V;
} 

object node{
name node_61759651_00411;
groupid primary;
phases ABCN;
nominal_voltage 6928.41 V;
} 

object node{
name node_B5072174_F_00411;
groupid primary;
phases A;
nominal_voltage 6928.41 V;
} 

object node{
name node_B5072168-2_00411;
groupid primary;
phases A;
nominal_voltage 6928.41 V;
} 

object node{
name node_BS2175-1_00411_1;
groupid primary;
phases A;
nominal_voltage 6928.41 V;
} 

object node{
name node_804148E_00411;
groupid primary;
phases ABN;
nominal_voltage 6928.41 V;
} 

object node{
name node_BS2185-1_00411_1;
groupid primary;
phases A;
nominal_voltage 6928.41 V;
} 

object node{
name node_ND136741349_00411;
groupid primary;
phases ABCN;
nominal_voltage 6928.41 V;
} 

object node{
name node_ND26586946_00411;
groupid primary;
phases ABCN;
nominal_voltage 6928.41 V;
} 

object node{
name node_B5072192-2_00411;
groupid primary;
phases A;
nominal_voltage 6928.41 V;
} 

object node{
name node_ND26587798_00411;
groupid primary;
phases ABCN;
nominal_voltage 6928.41 V;
} 

object node{
name node_GS0462-1_00411_1;
groupid primary;
phases ABCN;
nominal_voltage 6928.41 V;
} 

object node{
name node_B5072174-1_00411;
groupid primary;
phases A;
nominal_voltage 6928.41 V;
} 

object node{
name node_ND149699409_00411;
groupid primary;
phases ABCN;
nominal_voltage 6928.41 V;
} 

object node{
name node_GS0764-5_00411;
groupid primary;
phases ABCN;
nominal_voltage 6928.41 V;
} 

object node{
name node_26532419_00411;
groupid primary;
phases ABCN;
nominal_voltage 6928.41 V;
} 

object node{
name node_B5078594_F_00411;
groupid primary;
phases A;
nominal_voltage 6928.41 V;
} 

object node{
name node_B5072183-2_00411;
groupid primary;
phases A;
nominal_voltage 6928.41 V;
} 

object node{
name node_B5077953-2_00411;
groupid primary;
phases A;
nominal_voltage 6928.41 V;
} 

object node{
name node_149699483_00411_1;
groupid primary;
phases ABCN;
nominal_voltage 6928.41 V;
} 

object node{
name node_138485946_00411;
groupid primary;
phases ABCN;
nominal_voltage 6928.41 V;
} 

object node{
name node_PME0934-4_00411;
groupid primary;
phases ABCN;
nominal_voltage 6928.41 V;
} 

object node{
name node_P5077111-A_00411;
groupid primary;
phases ABCN;
nominal_voltage 6928.41 V;
} 

object node{
name node_GS0462-1_00411;
groupid primary;
phases ABCN;
nominal_voltage 6928.41 V;
} 

object node{
name node_B5199848-2_00411;
groupid primary;
phases ABCN;
nominal_voltage 6928.41 V;
} 

object node{
name node_B5076592-1_00411;
groupid primary;
phases A;
nominal_voltage 6928.41 V;
} 

object node{
name node_ND137845041_00411;
groupid primary;
phases ABCN;
nominal_voltage 6928.41 V;
} 

object node{
name node_P5078482-1_T_00411;
groupid primary;
phases ABCN;
nominal_voltage 6928.41 V;
} 

object node{
name node_GS0733-4_00411;
groupid primary;
phases ABCN;
nominal_voltage 6928.41 V;
} 

object node{
name node_B5074327_F_00411;
groupid primary;
phases ABN;
nominal_voltage 6928.41 V;
} 

object node{
name node_ND26587714_00411;
groupid primary;
phases ABCN;
nominal_voltage 6928.41 V;
} 

object node{
name node_B5076586-1_00411;
groupid primary;
phases A;
nominal_voltage 6928.41 V;
} 

object node{
name node_BS2196-1_00411_1;
groupid primary;
phases A;
nominal_voltage 6928.41 V;
} 

object node{
name node_P5363742-1_00411;
groupid primary;
phases ABCN;
nominal_voltage 6928.41 V;
} 

object node{
name node_OS0487-1_00411_1;
groupid primary;
phases ABCN;
nominal_voltage 6928.41 V;
} 

object node{
name node_BS2175-1_00411;
groupid primary;
phases A;
nominal_voltage 6928.41 V;
} 

object node{
name node_BS5243-R_00411;
groupid primary;
phases ABCN;
nominal_voltage 6928.41 V;
} 

object node{
name node_26446171_00411;
groupid primary;
phases ABCN;
nominal_voltage 6928.41 V;
} 

object node{
name node_B5072187_F_00411;
groupid primary;
phases A;
nominal_voltage 6928.41 V;
} 

object node{
name node_B5546196-2_00411;
groupid primary;
phases A;
nominal_voltage 6928.41 V;
} 

object node{
name node_B5074329-2_00411;
groupid primary;
phases ABN;
nominal_voltage 6928.41 V;
} 

object node{
name node_ND138022843_00411;
groupid primary;
phases ABCN;
nominal_voltage 6928.41 V;
} 

object node{
name node_B5076591-2_00411;
groupid primary;
phases A;
nominal_voltage 6928.41 V;
} 

object node{
name node_V5421056T1_00411;
groupid primary;
phases ABCN;
nominal_voltage 6928.41 V;
} 

object node{
name node_BS0908-1_00411_1;
groupid primary;
phases A;
nominal_voltage 6928.41 V;
} 

object node{
name node_B5077097_F_00411;
groupid primary;
phases A;
nominal_voltage 6928.41 V;
} 

object node{
name node_B5077098-2_00411;
groupid primary;
phases A;
nominal_voltage 6928.41 V;
} 

object node{
name node_ND26587706_00411;
groupid primary;
phases ABCN;
nominal_voltage 6928.41 V;
} 

object node{
name node_26494074_00411;
groupid primary;
phases ABCN;
nominal_voltage 6928.41 V;
} 

object node{
name node_ND26587625_00411;
groupid primary;
phases ABCN;
nominal_voltage 6928.41 V;
} 

object node{
name node_B5072182-2_00411;
groupid primary;
phases A;
nominal_voltage 6928.41 V;
} 

object node{
name node_B5076613-2_00411;
groupid primary;
phases A;
nominal_voltage 6928.41 V;
} 

object node{
name node_26496018_00411;
groupid primary;
phases ABCN;
nominal_voltage 6928.41 V;
} 

object node{
name node_P5444399-T_F_00411;
groupid primary;
phases ABCN;
nominal_voltage 6928.41 V;
} 

object node{
name node_B5546195-1_00411;
groupid primary;
phases A;
nominal_voltage 6928.41 V;
} 

object node{
name node_ND169838846_00411;
groupid primary;
phases ABCN;
nominal_voltage 6928.41 V;
} 

object node{
name node_B5546193-2_00411;
groupid primary;
phases A;
nominal_voltage 6928.41 V;
} 

object node{
name node_70814281_00411_1;
groupid primary;
phases A;
nominal_voltage 6928.41 V;
} 

object node{
name node_B5072190-1_00411;
groupid primary;
phases A;
nominal_voltage 6928.41 V;
} 

object node{
name node_B5079823-1_00411;
groupid primary;
phases A;
nominal_voltage 6928.41 V;
} 

object node{
name node_B5078589-1_00411;
groupid primary;
phases A;
nominal_voltage 6928.41 V;
} 

object node{
name node_B5077952_F_00411;
groupid primary;
phases A;
nominal_voltage 6928.41 V;
} 

object node{
name node_J0058-3P_00411;
groupid primary;
phases ABCN;
nominal_voltage 6928.41 V;
} 

object node{
name node_B5078581-1_00411;
groupid primary;
phases A;
nominal_voltage 6928.41 V;
} 

object node{
name node_149699533_00411;
groupid primary;
phases ABCN;
nominal_voltage 6928.41 V;
} 

object node{
name node_B5077949-2_00411;
groupid primary;
phases A;
nominal_voltage 6928.41 V;
} 

object node{
name node_26496042_00411;
groupid primary;
phases ABCN;
nominal_voltage 6928.41 V;
} 

object node{
name node_B5075886-2_00411;
groupid primary;
phases A;
nominal_voltage 6928.41 V;
} 

object node{
name node_BS0811-R_00411;
groupid primary;
phases ABCN;
nominal_voltage 6928.41 V;
} 

object node{
name node_P5074474-B_00411;
groupid primary;
phases A;
nominal_voltage 6928.41 V;
} 

object node{
name node_70814281_00411;
groupid primary;
phases A;
nominal_voltage 6928.41 V;
} 

object node{
name node_GS0583-1_00411;
groupid primary;
phases ABCN;
nominal_voltage 6928.41 V;
} 

object node{
name node_OS0432-4_T_00411;
groupid primary;
phases ABCN;
nominal_voltage 6928.41 V;
} 

object node{
name node_98371287_00411;
groupid primary;
phases A;
nominal_voltage 6928.41 V;
} 

object node{
name node_26586781_00411;
groupid primary;
phases ABCN;
nominal_voltage 6928.41 V;
} 

object node{
name node_B5300944_F_00411;
groupid primary;
phases A;
nominal_voltage 6928.41 V;
} 

object node{
name node_PME0934-3_00411;
groupid primary;
phases ABCN;
nominal_voltage 6928.41 V;
} 

object node{
name node_ND136741308_00411;
groupid primary;
phases ABN;
nominal_voltage 6928.41 V;
} 

object node{
name node_B5079823_F_00411;
groupid primary;
phases A;
nominal_voltage 6928.41 V;
} 

object node{
name node_26586639_00411_1;
groupid primary;
phases ABCN;
nominal_voltage 6928.41 V;
} 

object node{
name node_B5077949-1_00411;
groupid primary;
phases A;
nominal_voltage 6928.41 V;
} 

object node{
name node_J725A-2P_00411;
groupid primary;
phases ABCN;
nominal_voltage 6928.41 V;
} 

object node{
name node_B5300943-1_00411;
groupid primary;
phases A;
nominal_voltage 6928.41 V;
} 

object node{
name node_B5079149-2_00411;
groupid primary;
phases A;
nominal_voltage 6928.41 V;
} 

object node{
name node_B5077947_F_00411;
groupid primary;
phases A;
nominal_voltage 6928.41 V;
} 

object node{
name node_B5079142-2_00411;
groupid primary;
phases A;
nominal_voltage 6928.41 V;
} 

object node{
name node_B5078582-2_00411;
groupid primary;
phases A;
nominal_voltage 6928.41 V;
} 

object node{
name node_P5077109-1_00411;
groupid primary;
phases ABCN;
nominal_voltage 6928.41 V;
} 

object node{
name node_B5072170_F_00411;
groupid primary;
phases A;
nominal_voltage 6928.41 V;
} 

object node{
name node_B5072169-2_00411;
groupid primary;
phases A;
nominal_voltage 6928.41 V;
} 

object node{
name node_B5546263-2_00411;
groupid primary;
phases A;
nominal_voltage 6928.41 V;
} 

object node{
name node_PME3155-4_00411;
groupid primary;
phases ABCN;
nominal_voltage 6928.41 V;
} 

object node{
name node_BS2189-1_00411_1;
groupid primary;
phases ABCN;
nominal_voltage 6928.41 V;
} 

object node{
name node_149699159_00411;
groupid primary;
phases ABCN;
nominal_voltage 6928.41 V;
} 

object node{
name node_B5078594-2_00411;
groupid primary;
phases A;
nominal_voltage 6928.41 V;
} 

object node{
name node_B5076618-1_00411;
groupid primary;
phases A;
nominal_voltage 6928.41 V;
} 

object node{
name node_108163070_00411;
groupid primary;
phases ABCN;
nominal_voltage 6928.41 V;
} 

object node{
name node_B5078587-1_00411;
groupid primary;
phases A;
nominal_voltage 6928.41 V;
} 

object node{
name node_B5077950-1_00411;
groupid primary;
phases A;
nominal_voltage 6928.41 V;
} 

object node{
name node_B5531155-2_00411;
groupid primary;
phases A;
nominal_voltage 6928.41 V;
} 

object node{
name node_ND149699384_00411;
groupid primary;
phases ABCN;
nominal_voltage 6928.41 V;
} 

object node{
name node_B5078595_F_00411;
groupid primary;
phases A;
nominal_voltage 6928.41 V;
} 

object node{
name node_108163054_00411;
groupid primary;
phases ABCN;
nominal_voltage 6928.41 V;
} 

object node{
name node_P5076652-1_T_00411;
groupid primary;
phases ABCN;
nominal_voltage 6928.41 V;
} 

object node{
name node_P5074475-1_00411;
groupid primary;
phases A;
nominal_voltage 6928.41 V;
} 

object node{
name node_7533E_00411_1;
groupid primary;
phases ABN;
nominal_voltage 6928.41 V;
} 

object node{
name node_ND26587547_00411;
groupid primary;
phases ABCN;
nominal_voltage 6928.41 V;
} 

object node{
name node_PME3116-1_00411_1;
groupid primary;
phases ABCN;
nominal_voltage 6928.41 V;
} 

object node{
name node_BS2035-1_00411;
groupid primary;
phases ABCN;
nominal_voltage 6928.41 V;
} 

object node{
name node_J725A-3P_00411;
groupid primary;
phases ABCN;
nominal_voltage 6928.41 V;
} 

object node{
name node_BS0817-1_00411;
groupid primary;
phases ABN;
nominal_voltage 6928.41 V;
} 

object node{
name node_P5073042-B_00411;
groupid primary;
phases ABCN;
nominal_voltage 6928.41 V;
} 

object node{
name node_P5073039-T_T_00411;
groupid primary;
phases ABN;
nominal_voltage 6928.41 V;
} 

object node{
name node_B5079818_F_00411;
groupid primary;
phases A;
nominal_voltage 6928.41 V;
} 

object node{
name node_B5077948-1_00411;
groupid primary;
phases A;
nominal_voltage 6928.41 V;
} 

object node{
name node_B5076589-2_00411;
groupid primary;
phases A;
nominal_voltage 6928.41 V;
} 

object node{
name node_P5073685-A_00411;
groupid primary;
phases ABN;
nominal_voltage 6928.41 V;
} 

object node{
name node_OS0432-3_00411_1;
groupid primary;
phases ABCN;
nominal_voltage 6928.41 V;
} 

object node{
name node_B5077946_F_00411;
groupid primary;
phases A;
nominal_voltage 6928.41 V;
} 

object node{
name node_ND74913194_00411;
groupid primary;
phases ABCN;
nominal_voltage 6928.41 V;
} 

object node{
name node_ND137845243_00411;
groupid primary;
phases A;
nominal_voltage 6928.41 V;
} 

object node{
name node_143905645_00411;
groupid primary;
phases A;
nominal_voltage 6928.41 V;
} 

object node{
name node_B5074332_F_00411;
groupid primary;
phases ABN;
nominal_voltage 6928.41 V;
} 

object node{
name node_B5072180_F_00411;
groupid primary;
phases A;
nominal_voltage 6928.41 V;
} 

object node{
name node_B5078582_F_00411;
groupid primary;
phases A;
nominal_voltage 6928.41 V;
} 

object node{
name node_B5072194-1_00411;
groupid primary;
phases A;
nominal_voltage 6928.41 V;
} 

object node{
name node_P5319513-2_00411;
groupid primary;
phases ABCN;
nominal_voltage 6928.41 V;
} 

object node{
name node_P5407588-1_T_00411;
groupid primary;
phases ABCN;
nominal_voltage 6928.41 V;
} 

object node{
name node_B5077950_F_00411;
groupid primary;
phases A;
nominal_voltage 6928.41 V;
} 

object node{
name node_GS0450-2_00411;
groupid primary;
phases ABCN;
nominal_voltage 6928.41 V;
} 

object node{
name node_BS8592-1_00411_1;
groupid primary;
phases A;
nominal_voltage 6928.41 V;
} 

object node{
name node_P5073038-B_00411;
groupid primary;
phases ABN;
nominal_voltage 6928.41 V;
} 

object node{
name node_B5077097-1_00411;
groupid primary;
phases A;
nominal_voltage 6928.41 V;
} 

object node{
name node_26532247_00411;
groupid primary;
phases ABCN;
nominal_voltage 6928.41 V;
} 

object node{
name node_5532P1_00411;
groupid primary;
phases ABCN;
nominal_voltage 6928.41 V;
} 

object node{
name node_P5199845_00411;
groupid primary;
phases ABCN;
nominal_voltage 6928.41 V;
} 

object node{
name node_NM500450193_00411;
groupid primary;
phases ABCN;
nominal_voltage 6928.41 V;
} 

object node{
name node_B5072679-2_00411;
groupid primary;
phases A;
nominal_voltage 6928.41 V;
} 

object node{
name node_B5079143_F_00411;
groupid primary;
phases A;
nominal_voltage 6928.41 V;
} 

object node{
name node_4086096E_00411;
groupid primary;
phases ABCN;
nominal_voltage 6928.41 V;
} 

object node{
name node_B5199846_F_00411;
groupid primary;
phases ABCN;
nominal_voltage 6928.41 V;
} 

object node{
name node_P5074476_F_00411;
groupid primary;
phases A;
nominal_voltage 6928.41 V;
} 

object node{
name node_BS8592-1_00411;
groupid primary;
phases A;
nominal_voltage 6928.41 V;
} 

object node{
name node_OS0433-3_00411;
groupid primary;
phases ABCN;
nominal_voltage 6928.41 V;
} 

object node{
name node_B5076615_F_00411;
groupid primary;
phases A;
nominal_voltage 6928.41 V;
} 

object node{
name node_B5077953_F_00411;
groupid primary;
phases A;
nominal_voltage 6928.41 V;
} 

object node{
name node_26585714_00411;
groupid primary;
phases ABCN;
nominal_voltage 6928.41 V;
} 

object node{
name node_B5076588-2_00411;
groupid primary;
phases A;
nominal_voltage 6928.41 V;
} 

object node{
name node_26585722_00411;
groupid primary;
phases ABCN;
nominal_voltage 6928.41 V;
} 

object node{
name node_B5072187-2_00411;
groupid primary;
phases A;
nominal_voltage 6928.41 V;
} 

object node{
name node_B5072679-1_00411;
groupid primary;
phases A;
nominal_voltage 6928.41 V;
} 

object node{
name node_OS0970-5_00411;
groupid primary;
phases ABCN;
nominal_voltage 6928.41 V;
} 

object node{
name node_B5074332-2_00411;
groupid primary;
phases ABN;
nominal_voltage 6928.41 V;
} 

object node{
name node_V5075701T1_00411;
groupid primary;
phases ABCN;
nominal_voltage 6928.41 V;
} 

object node{
name node_804149E_00411;
groupid primary;
phases ABN;
nominal_voltage 6928.41 V;
} 

object node{
name node_P5077110-B_00411;
groupid primary;
phases ABCN;
nominal_voltage 6928.41 V;
} 

object node{
name node_B5199846-2_00411;
groupid primary;
phases ABCN;
nominal_voltage 6928.41 V;
} 

object node{
name node_P5074473_F_00411;
groupid primary;
phases A;
nominal_voltage 6928.41 V;
} 

object node{
name node_PME0934-2_00411;
groupid primary;
phases ABCN;
nominal_voltage 6928.41 V;
} 

object node{
name node_BS0811-L_00411;
groupid primary;
phases ABCN;
nominal_voltage 6928.41 V;
} 

object node{
name node_61759633_00411;
groupid primary;
phases ABCN;
nominal_voltage 6928.41 V;
} 

object node{
name node_B5546192_F_00411;
groupid primary;
phases A;
nominal_voltage 6928.41 V;
} 

object node{
name node_B5078585-1_00411;
groupid primary;
phases A;
nominal_voltage 6928.41 V;
} 

object node{
name node_B5077956-1_00411;
groupid primary;
phases A;
nominal_voltage 6928.41 V;
} 

object node{
name node_B5079143-1_00411;
groupid primary;
phases A;
nominal_voltage 6928.41 V;
} 

object node{
name node_26494849_00411;
groupid primary;
phases ABCN;
nominal_voltage 6928.41 V;
} 

object node{
name node_B5077097-2_00411;
groupid primary;
phases A;
nominal_voltage 6928.41 V;
} 

object node{
name node_B5300935-2_00411;
groupid primary;
phases A;
nominal_voltage 6928.41 V;
} 

object node{
name node_B5300937_F_00411;
groupid primary;
phases A;
nominal_voltage 6928.41 V;
} 

object node{
name node_B5300941-2_00411;
groupid primary;
phases A;
nominal_voltage 6928.41 V;
} 

object node{
name node_B5074332-1_00411;
groupid primary;
phases ABN;
nominal_voltage 6928.41 V;
} 

object node{
name node_B5078583-2_00411;
groupid primary;
phases A;
nominal_voltage 6928.41 V;
} 

object node{
name node_B5072188_F_00411;
groupid primary;
phases A;
nominal_voltage 6928.41 V;
} 

object node{
name node_B5078579_F_00411;
groupid primary;
phases A;
nominal_voltage 6928.41 V;
} 

object node{
name node_OS0433-4_00411;
groupid primary;
phases ABCN;
nominal_voltage 6928.41 V;
} 

object node{
name node_B5078589_F_00411;
groupid primary;
phases A;
nominal_voltage 6928.41 V;
} 

object node{
name node_804149E_00411_1;
groupid primary;
phases ABN;
nominal_voltage 6928.41 V;
} 

object node{
name node_71222442_00411_1;
groupid primary;
phases A;
nominal_voltage 6928.41 V;
} 

object node{
name node_ND71222711_00411;
groupid primary;
phases A;
nominal_voltage 6928.41 V;
} 

object node{
name node_V5421055-1_T_00411;
groupid primary;
phases ABCN;
nominal_voltage 6928.41 V;
} 

object node{
name node_GS0450-4_00411;
groupid primary;
phases ABCN;
nominal_voltage 6928.41 V;
} 

object node{
name node_P5073039-A_00411;
groupid primary;
phases ABN;
nominal_voltage 6928.41 V;
} 

object node{
name node_B5300941_F_00411;
groupid primary;
phases A;
nominal_voltage 6928.41 V;
} 

object node{
name node_61759642_00411;
groupid primary;
phases ABCN;
nominal_voltage 6928.41 V;
} 

object node{
name node_B5076584-1_00411;
groupid primary;
phases A;
nominal_voltage 6928.41 V;
} 

object node{
name node_BS0731-1_00411;
groupid primary;
phases A;
nominal_voltage 6928.41 V;
} 

object node{
name node_B5072190_F_00411;
groupid primary;
phases A;
nominal_voltage 6928.41 V;
} 

object node{
name node_26586837_00411_1;
groupid primary;
phases A;
nominal_voltage 6928.41 V;
} 

object node{
name node_BS2020-1_00411_1;
groupid primary;
phases ABCN;
nominal_voltage 6928.41 V;
} 

object node{
name node_P5074476-1_00411;
groupid primary;
phases A;
nominal_voltage 6928.41 V;
} 

object node{
name node_B5546267-2_00411;
groupid primary;
phases A;
nominal_voltage 6928.41 V;
} 

object node{
name node_B5079818-1_00411;
groupid primary;
phases A;
nominal_voltage 6928.41 V;
} 

object node{
name node_B5078586_F_00411;
groupid primary;
phases A;
nominal_voltage 6928.41 V;
} 

object node{
name node_P5074222-1_00411;
groupid primary;
phases ABN;
nominal_voltage 6928.41 V;
} 

object node{
name node_PME3155-2_00411;
groupid primary;
phases ABCN;
nominal_voltage 6928.41 V;
} 

object node{
name node_5532P1_00411_1;
groupid primary;
phases ABCN;
nominal_voltage 6928.41 V;
} 

object node{
name node_149699533_00411_1;
groupid primary;
phases ABCN;
nominal_voltage 6928.41 V;
} 

object node{
name node_ND26587438_00411;
groupid primary;
phases ABCN;
nominal_voltage 6928.41 V;
} 

object node{
name node_P5074232-B_00411;
groupid primary;
phases A;
nominal_voltage 6928.41 V;
} 

object node{
name node_B5074331_00411_1;
groupid primary;
phases ABN;
nominal_voltage 6928.41 V;
} 

object node{
name node_B5079142-1_00411;
groupid primary;
phases A;
nominal_voltage 6928.41 V;
} 

object node{
name node_1567535E_00411_1;
groupid primary;
phases ABCN;
nominal_voltage 6928.41 V;
} 

object node{
name node_B5300945-2_00411;
groupid primary;
phases A;
nominal_voltage 6928.41 V;
} 

object node{
name node_B5072193_F_00411;
groupid primary;
phases A;
nominal_voltage 6928.41 V;
} 

object node{
name node_B5079149_F_00411;
groupid primary;
phases A;
nominal_voltage 6928.41 V;
} 

object node{
name node_P5075988-1_00411;
groupid primary;
phases ABCN;
nominal_voltage 6928.41 V;
} 

object node{
name node_B5546265_F_00411;
groupid primary;
phases A;
nominal_voltage 6928.41 V;
} 

object node{
name node_B5546265-1_00411;
groupid primary;
phases A;
nominal_voltage 6928.41 V;
} 

object node{
name node_ND26587844_00411;
groupid primary;
phases ABCN;
nominal_voltage 6928.41 V;
} 

object node{
name node_B5074333_F_00411;
groupid primary;
phases ABN;
nominal_voltage 6928.41 V;
} 

object node{
name node_PME3116-4_00411_1;
groupid primary;
phases ABCN;
nominal_voltage 6928.41 V;
} 

object node{
name node_B5546191-2_00411;
groupid primary;
phases A;
nominal_voltage 6928.41 V;
} 

object node{
name node_B5075884_F_00411;
groupid primary;
phases A;
nominal_voltage 6928.41 V;
} 

object node{
name node_26496034_00411;
groupid primary;
phases ABCN;
nominal_voltage 6928.41 V;
} 

object node{
name node_B5079822-1_00411;
groupid primary;
phases A;
nominal_voltage 6928.41 V;
} 

object node{
name node_ND174204397_00411;
groupid primary;
phases ABCN;
nominal_voltage 6928.41 V;
} 

object node{
...